BEGIN Options
  LENGTH_UNITS  meters
END Options

BEGIN Dimensions
  NLAY  3
  NROW  120
  NCOL  60
END Dimensions

BEGIN GRIDDATA
  delr
    CONSTANT      83.33334000
  delc
    CONSTANT      83.33334000
  top
    INTERNAL  FACTOR  1.0  IPRN  3
        41.40240000      41.40240000      41.40240000      41.33081000      41.33081000      41.33081000      41.17999000      41.17999000      41.17999000      40.95432000      40.95432000      40.95432000      40.70931000      40.70931000      40.70931000      40.43085000      40.43085000      40.43085000      40.09084000      40.09084000
        40.09084000      39.79636000      39.79636000      39.79636000      39.44411000      39.44411000      39.44411000      39.08687000      39.08687000      39.08687000      38.74368000      38.74368000      38.74368000      38.40399000      38.40399000      38.40399000      38.05364000      38.05364000      38.05364000      37.67211000
        37.67211000      37.67211000      37.27559000      37.27559000      37.27559000      36.81372000      36.81372000      36.81372000      36.96497000      36.96497000      36.96497000      37.03937000      37.03937000      37.03937000      37.08693000      37.08693000      37.08693000      37.11279000      37.11279000      37.11279000
        41.40240000      41.40240000      41.40240000      41.33081000      41.33081000      41.33081000      41.17999000      41.17999000      41.17999000      40.95432000      40.95432000      40.95432000      40.70931000      40.70931000      40.70931000      40.43085000      40.43085000      40.43085000      40.09084000      40.09084000
        40.09084000      39.79636000      39.79636000      39.79636000      39.44411000      39.44411000      39.44411000      39.08687000      39.08687000      39.08687000      38.74368000      38.74368000      38.74368000      38.40399000      38.40399000      38.40399000      38.05364000      38.05364000      38.05364000      37.67211000
        37.67211000      37.67211000      37.27559000      37.27559000      37.27559000      36.81372000      36.81372000      36.81372000      36.96497000      36.96497000      36.96497000      37.03937000      37.03937000      37.03937000      37.08693000      37.08693000      37.08693000      37.11279000      37.11279000      37.11279000
        41.40240000      41.40240000      41.40240000      41.33081000      41.33081000      41.33081000      41.17999000      41.17999000      41.17999000      40.95432000      40.95432000      40.95432000      40.70931000      40.70931000      40.70931000      40.43085000      40.43085000      40.43085000      40.09084000      40.09084000
        40.09084000      39.79636000      39.79636000      39.79636000      39.44411000      39.44411000      39.44411000      39.08687000      39.08687000      39.08687000      38.74368000      38.74368000      38.74368000      38.40399000      38.40399000      38.40399000      38.05364000      38.05364000      38.05364000      37.67211000
        37.67211000      37.67211000      37.27559000      37.27559000      37.27559000      36.81372000      36.81372000      36.81372000      36.96497000      36.96497000      36.96497000      37.03937000      37.03937000      37.03937000      37.08693000      37.08693000      37.08693000      37.11279000      37.11279000      37.11279000
        41.41753000      41.41753000      41.41753000      41.33787000      41.33787000      41.33787000      41.18803000      41.18803000      41.18803000      40.95626000      40.95626000      40.95626000      40.71925000      40.71925000      40.71925000      40.43606000      40.43606000      40.43606000      40.09564000      40.09564000
        40.09564000      39.78070000      39.78070000      39.78070000      39.43545000      39.43545000      39.43545000      39.06076000      39.06076000      39.06076000      38.71861000      38.71861000      38.71861000      38.38353000      38.38353000      38.38353000      38.03437000      38.03437000      38.03437000      37.65467000
        37.65467000      37.65467000      37.27021000      37.27021000      37.27021000      36.80560000      36.80560000      36.80560000      36.95537000      36.95537000      36.95537000      37.03091000      37.03091000      37.03091000      37.07886000      37.07886000      37.07886000      37.10387000      37.10387000      37.10387000
        41.41753000      41.41753000      41.41753000      41.33787000      41.33787000      41.33787000      41.18803000      41.18803000      41.18803000      40.95626000      40.95626000      40.95626000      40.71925000      40.71925000      40.71925000      40.43606000      40.43606000      40.43606000      40.09564000      40.09564000
        40.09564000      39.78070000      39.78070000      39.78070000      39.43545000      39.43545000      39.43545000      39.06076000      39.06076000      39.06076000      38.71861000      38.71861000      38.71861000      38.38353000      38.38353000      38.38353000      38.03437000      38.03437000      38.03437000      37.65467000
        37.65467000      37.65467000      37.27021000      37.27021000      37.27021000      36.80560000      36.80560000      36.80560000      36.95537000      36.95537000      36.95537000      37.03091000      37.03091000      37.03091000      37.07886000      37.07886000      37.07886000      37.10387000      37.10387000      37.10387000
        41.41753000      41.41753000      41.41753000      41.33787000      41.33787000      41.33787000      41.18803000      41.18803000      41.18803000      40.95626000      40.95626000      40.95626000      40.71925000      40.71925000      40.71925000      40.43606000      40.43606000      40.43606000      40.09564000      40.09564000
        40.09564000      39.78070000      39.78070000      39.78070000      39.43545000      39.43545000      39.43545000      39.06076000      39.06076000      39.06076000      38.71861000      38.71861000      38.71861000      38.38353000      38.38353000      38.38353000      38.03437000      38.03437000      38.03437000      37.65467000
        37.65467000      37.65467000      37.27021000      37.27021000      37.27021000      36.80560000      36.80560000      36.80560000      36.95537000      36.95537000      36.95537000      37.03091000      37.03091000      37.03091000      37.07886000      37.07886000      37.07886000      37.10387000      37.10387000      37.10387000
        41.44245000      41.44245000      41.44245000      41.36702000      41.36702000      41.36702000      41.20671000      41.20671000      41.20671000      40.97007000      40.97007000      40.97007000      40.73389000      40.73389000      40.73389000      40.44087000      40.44087000      40.44087000      40.08412000      40.08412000
        40.08412000      39.76557000      39.76557000      39.76557000      39.39819000      39.39819000      39.39819000      39.03209000      39.03209000      39.03209000      38.67385000      38.67385000      38.67385000      38.34215000      38.34215000      38.34215000      37.99277000      37.99277000      37.99277000      37.62735000
        37.62735000      37.62735000      37.25536000      37.25536000      37.25536000      36.79268000      36.79268000      36.79268000      36.93945000      36.93945000      36.93945000      37.01274000      37.01274000      37.01274000      37.06073000      37.06073000      37.06073000      37.08591000      37.08591000      37.08591000
        41.44245000      41.44245000      41.44245000      41.36702000      41.36702000      41.36702000      41.20671000      41.20671000      41.20671000      40.97007000      40.97007000      40.97007000      40.73389000      40.73389000      40.73389000      40.44087000      40.44087000      40.44087000      40.08412000      40.08412000
        40.08412000      39.76557000      39.76557000      39.76557000      39.39819000      39.39819000      39.39819000      39.03209000      39.03209000      39.03209000      38.67385000      38.67385000      38.67385000      38.34215000      38.34215000      38.34215000      37.99277000      37.99277000      37.99277000      37.62735000
        37.62735000      37.62735000      37.25536000      37.25536000      37.25536000      36.79268000      36.79268000      36.79268000      36.93945000      36.93945000      36.93945000      37.01274000      37.01274000      37.01274000      37.06073000      37.06073000      37.06073000      37.08591000      37.08591000      37.08591000
        41.44245000      41.44245000      41.44245000      41.36702000      41.36702000      41.36702000      41.20671000      41.20671000      41.20671000      40.97007000      40.97007000      40.97007000      40.73389000      40.73389000      40.73389000      40.44087000      40.44087000      40.44087000      40.08412000      40.08412000
        40.08412000      39.76557000      39.76557000      39.76557000      39.39819000      39.39819000      39.39819000      39.03209000      39.03209000      39.03209000      38.67385000      38.67385000      38.67385000      38.34215000      38.34215000      38.34215000      37.99277000      37.99277000      37.99277000      37.62735000
        37.62735000      37.62735000      37.25536000      37.25536000      37.25536000      36.79268000      36.79268000      36.79268000      36.93945000      36.93945000      36.93945000      37.01274000      37.01274000      37.01274000      37.06073000      37.06073000      37.06073000      37.08591000      37.08591000      37.08591000
        41.48380000      41.48380000      41.48380000      41.40802000      41.40802000      41.40802000      41.24792000      41.24792000      41.24792000      41.00307000      41.00307000      41.00307000      40.74854000      40.74854000      40.74854000      40.45048000      40.45048000      40.45048000      40.07338000      40.07338000
        40.07338000      39.72918000      39.72918000      39.72918000      39.36676000      39.36676000      39.36676000      38.95456000      38.95456000      38.95456000      38.60112000      38.60112000      38.60112000      38.27567000      38.27567000      38.27567000      37.93710000      37.93710000      37.93710000      37.58903000
        37.58903000      37.58903000      37.21910000      37.21910000      37.21910000      36.77654000      36.77654000      36.77654000      36.92007000      36.92007000      36.92007000      36.98705000      36.98705000      36.98705000      37.03389000      37.03389000      37.03389000      37.05762000      37.05762000      37.05762000
        41.48380000      41.48380000      41.48380000      41.40802000      41.40802000      41.40802000      41.24792000      41.24792000      41.24792000      41.00307000      41.00307000      41.00307000      40.74854000      40.74854000      40.74854000      40.45048000      40.45048000      40.45048000      40.07338000      40.07338000
        40.07338000      39.72918000      39.72918000      39.72918000      39.36676000      39.36676000      39.36676000      38.95456000      38.95456000      38.95456000      38.60112000      38.60112000      38.60112000      38.27567000      38.27567000      38.27567000      37.93710000      37.93710000      37.93710000      37.58903000
        37.58903000      37.58903000      37.21910000      37.21910000      37.21910000      36.77654000      36.77654000      36.77654000      36.92007000      36.92007000      36.92007000      36.98705000      36.98705000      36.98705000      37.03389000      37.03389000      37.03389000      37.05762000      37.05762000      37.05762000
        41.48380000      41.48380000      41.48380000      41.40802000      41.40802000      41.40802000      41.24792000      41.24792000      41.24792000      41.00307000      41.00307000      41.00307000      40.74854000      40.74854000      40.74854000      40.45048000      40.45048000      40.45048000      40.07338000      40.07338000
        40.07338000      39.72918000      39.72918000      39.72918000      39.36676000      39.36676000      39.36676000      38.95456000      38.95456000      38.95456000      38.60112000      38.60112000      38.60112000      38.27567000      38.27567000      38.27567000      37.93710000      37.93710000      37.93710000      37.58903000
        37.58903000      37.58903000      37.21910000      37.21910000      37.21910000      36.77654000      36.77654000      36.77654000      36.92007000      36.92007000      36.92007000      36.98705000      36.98705000      36.98705000      37.03389000      37.03389000      37.03389000      37.05762000      37.05762000      37.05762000
        41.54239000      41.54239000      41.54239000      41.45901000      41.45901000      41.45901000      41.29391000      41.29391000      41.29391000      41.05542000      41.05542000      41.05542000      40.78231000      40.78231000      40.78231000      40.44468000      40.44468000      40.44468000      40.06211000      40.06211000
        40.06211000      39.71255000      39.71255000      39.71255000      39.27607000      39.27607000      39.27607000      38.87059000      38.87059000      38.87059000      38.52362000      38.52362000      38.52362000      38.20268000      38.20268000      38.20268000      37.87408000      37.87408000      37.87408000      37.53572000
        37.53572000      37.53572000      37.17611000      37.17611000      37.17611000      36.75341000      36.75341000      36.75341000      36.88242000      36.88242000      36.88242000      36.95008000      36.95008000      36.95008000      36.99477000      36.99477000      36.99477000      37.01869000      37.01869000      37.01869000
        41.54239000      41.54239000      41.54239000      41.45901000      41.45901000      41.45901000      41.29391000      41.29391000      41.29391000      41.05542000      41.05542000      41.05542000      40.78231000      40.78231000      40.78231000      40.44468000      40.44468000      40.44468000      40.06211000      40.06211000
        40.06211000      39.71255000      39.71255000      39.71255000      39.27607000      39.27607000      39.27607000      38.87059000      38.87059000      38.87059000      38.52362000      38.52362000      38.52362000      38.20268000      38.20268000      38.20268000      37.87408000      37.87408000      37.87408000      37.53572000
        37.53572000      37.53572000      37.17611000      37.17611000      37.17611000      36.75341000      36.75341000      36.75341000      36.88242000      36.88242000      36.88242000      36.95008000      36.95008000      36.95008000      36.99477000      36.99477000      36.99477000      37.01869000      37.01869000      37.01869000
        41.54239000      41.54239000      41.54239000      41.45901000      41.45901000      41.45901000      41.29391000      41.29391000      41.29391000      41.05542000      41.05542000      41.05542000      40.78231000      40.78231000      40.78231000      40.44468000      40.44468000      40.44468000      40.06211000      40.06211000
        40.06211000      39.71255000      39.71255000      39.71255000      39.27607000      39.27607000      39.27607000      38.87059000      38.87059000      38.87059000      38.52362000      38.52362000      38.52362000      38.20268000      38.20268000      38.20268000      37.87408000      37.87408000      37.87408000      37.53572000
        37.53572000      37.53572000      37.17611000      37.17611000      37.17611000      36.75341000      36.75341000      36.75341000      36.88242000      36.88242000      36.88242000      36.95008000      36.95008000      36.95008000      36.99477000      36.99477000      36.99477000      37.01869000      37.01869000      37.01869000
        41.60534000      41.60534000      41.60534000      41.53455000      41.53455000      41.53455000      41.36453000      41.36453000      41.36453000      41.11573000      41.11573000      41.11573000      40.82088000      40.82088000      40.82088000      40.46301000      40.46301000      40.46301000      40.05827000      40.05827000
        40.05827000      39.61914000      39.61914000      39.61914000      39.20841000      39.20841000      39.20841000      38.77740000      38.77740000      38.77740000      38.40944000      38.40944000      38.40944000      38.10872000      38.10872000      38.10872000      37.79416000      37.79416000      37.79416000      37.46841000
        37.46841000      37.46841000      37.12472000      37.12472000      37.12472000      36.71585000      36.71585000      36.71585000      36.83689000      36.83689000      36.83689000      36.89748000      36.89748000      36.89748000      36.94604000      36.94604000      36.94604000      36.97164000      36.97164000      36.97164000
        41.60534000      41.60534000      41.60534000      41.53455000      41.53455000      41.53455000      41.36453000      41.36453000      41.36453000      41.11573000      41.11573000      41.11573000      40.82088000      40.82088000      40.82088000      40.46301000      40.46301000      40.46301000      40.05827000      40.05827000
        40.05827000      39.61914000      39.61914000      39.61914000      39.20841000      39.20841000      39.20841000      38.77740000      38.77740000      38.77740000      38.40944000      38.40944000      38.40944000      38.10872000      38.10872000      38.10872000      37.79416000      37.79416000      37.79416000      37.46841000
        37.46841000      37.46841000      37.12472000      37.12472000      37.12472000      36.71585000      36.71585000      36.71585000      36.83689000      36.83689000      36.83689000      36.89748000      36.89748000      36.89748000      36.94604000      36.94604000      36.94604000      36.97164000      36.97164000      36.97164000
        41.60534000      41.60534000      41.60534000      41.53455000      41.53455000      41.53455000      41.36453000      41.36453000      41.36453000      41.11573000      41.11573000      41.11573000      40.82088000      40.82088000      40.82088000      40.46301000      40.46301000      40.46301000      40.05827000      40.05827000
        40.05827000      39.61914000      39.61914000      39.61914000      39.20841000      39.20841000      39.20841000      38.77740000      38.77740000      38.77740000      38.40944000      38.40944000      38.40944000      38.10872000      38.10872000      38.10872000      37.79416000      37.79416000      37.79416000      37.46841000
        37.46841000      37.46841000      37.12472000      37.12472000      37.12472000      36.71585000      36.71585000      36.71585000      36.83689000      36.83689000      36.83689000      36.89748000      36.89748000      36.89748000      36.94604000      36.94604000      36.94604000      36.97164000      36.97164000      36.97164000
        41.68361000      41.68361000      41.68361000      41.61142000      41.61142000      41.61142000      41.46446000      41.46446000      41.46446000      41.20088000      41.20088000      41.20088000      40.87869000      40.87869000      40.87869000      40.45464000      40.45464000      40.45464000      40.02824000      40.02824000
        40.02824000      39.50999000      39.50999000      39.50999000      39.06732000      39.06732000      39.06732000      38.62727000      38.62727000      38.62727000      38.28530000      38.28530000      38.28530000      37.99799000      37.99799000      37.99799000      37.69825000      37.69825000      37.69825000      37.38658000
        37.38658000      37.38658000      37.05692000      37.05692000      37.05692000      36.66760000      36.66760000      36.66760000      36.77657000      36.77657000      36.77657000      36.83593000      36.83593000      36.83593000      36.88470000      36.88470000      36.88470000      36.91358000      36.91358000      36.91358000
        41.68361000      41.68361000      41.68361000      41.61142000      41.61142000      41.61142000      41.46446000      41.46446000      41.46446000      41.20088000      41.20088000      41.20088000      40.87869000      40.87869000      40.87869000      40.45464000      40.45464000      40.45464000      40.02824000      40.02824000
        40.02824000      39.50999000      39.50999000      39.50999000      39.06732000      39.06732000      39.06732000      38.62727000      38.62727000      38.62727000      38.28530000      38.28530000      38.28530000      37.99799000      37.99799000      37.99799000      37.69825000      37.69825000      37.69825000      37.38658000
        37.38658000      37.38658000      37.05692000      37.05692000      37.05692000      36.66760000      36.66760000      36.66760000      36.77657000      36.77657000      36.77657000      36.83593000      36.83593000      36.83593000      36.88470000      36.88470000      36.88470000      36.91358000      36.91358000      36.91358000
        41.68361000      41.68361000      41.68361000      41.61142000      41.61142000      41.61142000      41.46446000      41.46446000      41.46446000      41.20088000      41.20088000      41.20088000      40.87869000      40.87869000      40.87869000      40.45464000      40.45464000      40.45464000      40.02824000      40.02824000
        40.02824000      39.50999000      39.50999000      39.50999000      39.06732000      39.06732000      39.06732000      38.62727000      38.62727000      38.62727000      38.28530000      38.28530000      38.28530000      37.99799000      37.99799000      37.99799000      37.69825000      37.69825000      37.69825000      37.38658000
        37.38658000      37.38658000      37.05692000      37.05692000      37.05692000      36.66760000      36.66760000      36.66760000      36.77657000      36.77657000      36.77657000      36.83593000      36.83593000      36.83593000      36.88470000      36.88470000      36.88470000      36.91358000      36.91358000      36.91358000
        41.80635000      41.80635000      41.80635000      41.73301000      41.73301000      41.73301000      41.60455000      41.60455000      41.60455000      41.36411000      41.36411000      41.36411000      40.93629000      40.93629000      40.93629000      40.46154000      40.46154000      40.46154000      39.95647000      39.95647000
        39.95647000      39.33681000      39.33681000      39.33681000      38.85104000      38.85104000      38.85104000      38.44459000      38.44459000      38.44459000      38.13887000      38.13887000      38.13887000      37.87000000      37.87000000      37.87000000      37.58790000      37.58790000      37.58790000      37.28421000
        37.28421000      37.28421000      36.97276000      36.97276000      36.97276000      36.60574000      36.60574000      36.60574000      36.68644000      36.68644000      36.68644000      36.75731000      36.75731000      36.75731000      36.81558000      36.81558000      36.81558000      36.85176000      36.85176000      36.85176000
        41.80635000      41.80635000      41.80635000      41.73301000      41.73301000      41.73301000      41.60455000      41.60455000      41.60455000      41.36411000      41.36411000      41.36411000      40.93629000      40.93629000      40.93629000      40.46154000      40.46154000      40.46154000      39.95647000      39.95647000
        39.95647000      39.33681000      39.33681000      39.33681000      38.85104000      38.85104000      38.85104000      38.44459000      38.44459000      38.44459000      38.13887000      38.13887000      38.13887000      37.87000000      37.87000000      37.87000000      37.58790000      37.58790000      37.58790000      37.28421000
        37.28421000      37.28421000      36.97276000      36.97276000      36.97276000      36.60574000      36.60574000      36.60574000      36.68644000      36.68644000      36.68644000      36.75731000      36.75731000      36.75731000      36.81558000      36.81558000      36.81558000      36.85176000      36.85176000      36.85176000
        41.80635000      41.80635000      41.80635000      41.73301000      41.73301000      41.73301000      41.60455000      41.60455000      41.60455000      41.36411000      41.36411000      41.36411000      40.93629000      40.93629000      40.93629000      40.46154000      40.46154000      40.46154000      39.95647000      39.95647000
        39.95647000      39.33681000      39.33681000      39.33681000      38.85104000      38.85104000      38.85104000      38.44459000      38.44459000      38.44459000      38.13887000      38.13887000      38.13887000      37.87000000      37.87000000      37.87000000      37.58790000      37.58790000      37.58790000      37.28421000
        37.28421000      37.28421000      36.97276000      36.97276000      36.97276000      36.60574000      36.60574000      36.60574000      36.68644000      36.68644000      36.68644000      36.75731000      36.75731000      36.75731000      36.81558000      36.81558000      36.81558000      36.85176000      36.85176000      36.85176000
        41.92367000      41.92367000      41.92367000      41.87130000      41.87130000      41.87130000      41.79509000      41.79509000      41.79509000      41.72395000      41.72395000      41.72395000   -1049.99000000   -1049.99000000   -1049.99000000   -1049.99000000   -1049.99000000   -1049.99000000   -1049.99000000   -1049.99000000
     -1049.99000000      38.91967000      38.91967000      38.91967000      38.51255000      38.51255000      38.51255000      38.22691000      38.22691000      38.22691000      37.97980000      37.97980000      37.97980000      37.72636000      37.72636000      37.72636000      37.45673000      37.45673000      37.45673000      37.17269000
        37.17269000      37.17269000      36.87622000      36.87622000      36.87622000      36.52253000      36.52253000      36.52253000      36.54354000      36.54354000      36.54354000      36.65379000      36.65379000      36.65379000      36.74355000      36.74355000      36.74355000      36.78944000      36.78944000      36.78944000
        41.92367000      41.92367000      41.92367000      41.87130000      41.87130000      41.87130000      41.79509000      41.79509000      41.79509000      41.72395000      41.72395000      41.72395000   -1049.99000000   -1049.99000000   -1049.99000000   -1049.99000000   -1049.99000000   -1049.99000000   -1049.99000000   -1049.99000000
     -1049.99000000      38.91967000      38.91967000      38.91967000      38.51255000      38.51255000      38.51255000      38.22691000      38.22691000      38.22691000      37.97980000      37.97980000      37.97980000      37.72636000      37.72636000      37.72636000      37.45673000      37.45673000      37.45673000      37.17269000
        37.17269000      37.17269000      36.87622000      36.87622000      36.87622000      36.52253000      36.52253000      36.52253000      36.54354000      36.54354000      36.54354000      36.65379000      36.65379000      36.65379000      36.74355000      36.74355000      36.74355000      36.78944000      36.78944000      36.78944000
        41.92367000      41.92367000      41.92367000      41.87130000      41.87130000      41.87130000      41.79509000      41.79509000      41.79509000      41.72395000      41.72395000      41.72395000   -1049.99000000   -1049.99000000   -1049.99000000   -1049.99000000   -1049.99000000   -1049.99000000   -1049.99000000   -1049.99000000
     -1049.99000000      38.91967000      38.91967000      38.91967000      38.51255000      38.51255000      38.51255000      38.22691000      38.22691000      38.22691000      37.97980000      37.97980000      37.97980000      37.72636000      37.72636000      37.72636000      37.45673000      37.45673000      37.45673000      37.17269000
        37.17269000      37.17269000      36.87622000      36.87622000      36.87622000      36.52253000      36.52253000      36.52253000      36.54354000      36.54354000      36.54354000      36.65379000      36.65379000      36.65379000      36.74355000      36.74355000      36.74355000      36.78944000      36.78944000      36.78944000
        42.03880000      42.03880000      42.03880000      41.99784000      41.99784000      41.99784000      41.96479000      41.96479000      41.96479000      41.92723000      41.92723000      41.92723000   -1049.99000000   -1049.99000000   -1049.99000000   -1049.99000000   -1049.99000000   -1049.99000000   -1049.99000000   -1049.99000000
     -1049.99000000   -1049.99000000   -1049.99000000   -1049.99000000      38.16611000      38.16611000      38.16611000      38.00510000      38.00510000      38.00510000      37.80128000      37.80128000      37.80128000      37.57563000      37.57563000      37.57563000      37.31744000      37.31744000      37.31744000      37.03664000
        37.03664000      37.03664000      36.76944000      36.76944000      36.76944000      36.42353000      36.42353000      36.42353000      36.25089000      36.25089000      36.25089000      36.54821000      36.54821000      36.54821000      36.68683000      36.68683000      36.68683000      36.74303000      36.74303000      36.74303000
        42.03880000      42.03880000      42.03880000      41.99784000      41.99784000      41.99784000      41.96479000      41.96479000      41.96479000      41.92723000      41.92723000      41.92723000   -1049.99000000   -1049.99000000   -1049.99000000   -1049.99000000   -1049.99000000   -1049.99000000   -1049.99000000   -1049.99000000
     -1049.99000000   -1049.99000000   -1049.99000000   -1049.99000000      38.16611000      38.16611000      38.16611000      38.00510000      38.00510000      38.00510000      37.80128000      37.80128000      37.80128000      37.57563000      37.57563000      37.57563000      37.31744000      37.31744000      37.31744000      37.03664000