pcf
* control data
             restart          estimation
      8175      1025        36         0        41         0
        14         3              single               point         1         0         0          noobsreref
   2.000000E+01  -3.000000E+00   3.000000E-01   1.000000E-02        -7       999          lamforgive        noderforgive
   1.000000E+01   1.000000E+01   1.000000E-03         0         0
   1.000000E-01         1   1.100000E+00               noaui          nosenreuse        noboundscale
         3   1.000000E-02         3         3   1.000000E-02         3   0.000000E+00         1  -1.000000E+00
         0         0         0         0             jcosave          verboserec          jcosaveitn          reisaveitn          parsaveitn        noparsaverun
* singular value decomposition
         1
  10000000    1.000000E-06
1
* parameter groups
 npf_k_2                 relative              1.0000000000E-02       0.0  switch                2.0000000000E+00       parabolic             1.0000000000E-05      5.0000000000E-01       smaller              
 npf_k33_2               relative              1.0000000000E-02       0.0  switch                2.0000000000E+00       parabolic             1.0000000000E-05      5.0000000000E-01       smaller              
 npf_k_1                 relative              1.0000000000E-02       0.0  switch                2.0000000000E+00       parabolic             1.0000000000E-05      5.0000000000E-01       smaller              
 npf_k33_0               relative              1.0000000000E-02       0.0  switch                2.0000000000E+00       parabolic             1.0000000000E-05      5.0000000000E-01       smaller              
 npf_k33_1               relative              1.0000000000E-02       0.0  switch                2.0000000000E+00       parabolic             1.0000000000E-05      5.0000000000E-01       smaller              
 sto_sy_0                relative              1.0000000000E-02       0.0  switch                2.0000000000E+00       parabolic             1.0000000000E-05      5.0000000000E-01       smaller              
 sto_ss_0                relative              1.0000000000E-02       0.0  switch                2.0000000000E+00       parabolic             1.0000000000E-05      5.0000000000E-01       smaller              
 npf_k_0                 relative              1.0000000000E-02       0.0  switch                2.0000000000E+00       parabolic             1.0000000000E-05      5.0000000000E-01       smaller              
 sto_ss_2                relative              1.0000000000E-02       0.0  switch                2.0000000000E+00       parabolic             1.0000000000E-05      5.0000000000E-01       smaller              
 sto_ss_1                relative              1.0000000000E-02       0.0  switch                2.0000000000E+00       parabolic             1.0000000000E-05      5.0000000000E-01       smaller              
 rch                     relative              1.0000000000E-02       0.0  switch                2.0000000000E+00       parabolic             1.0000000000E-05      5.0000000000E-01       smaller              
 welflux_1               relative              1.0000000000E-02       0.0  switch                2.0000000000E+00       parabolic             1.0000000000E-05      5.0000000000E-01       smaller              
 welflux_22              relative              1.0000000000E-02       0.0  switch                2.0000000000E+00       parabolic             1.0000000000E-05      5.0000000000E-01       smaller              
 welflux_11              relative              1.0000000000E-02       0.0  switch                2.0000000000E+00       parabolic             1.0000000000E-05      5.0000000000E-01       smaller              
 welflux_6               relative              1.0000000000E-02       0.0  switch                2.0000000000E+00       parabolic             1.0000000000E-05      5.0000000000E-01       smaller              
 welflux_3               relative              1.0000000000E-02       0.0  switch                2.0000000000E+00       parabolic             1.0000000000E-05      5.0000000000E-01       smaller              
 welflux_18              relative              1.0000000000E-02       0.0  switch                2.0000000000E+00       parabolic             1.0000000000E-05      5.0000000000E-01       smaller              
 welflux_8               relative              1.0000000000E-02       0.0  switch                2.0000000000E+00       parabolic             1.0000000000E-05      5.0000000000E-01       smaller              
 welflux_15              relative              1.0000000000E-02       0.0  switch                2.0000000000E+00       parabolic             1.0000000000E-05      5.0000000000E-01       smaller              
 welflux_10              relative              1.0000000000E-02       0.0  switch                2.0000000000E+00       parabolic             1.0000000000E-05      5.0000000000E-01       smaller              
 welflux_13              relative              1.0000000000E-02       0.0  switch                2.0000000000E+00       parabolic             1.0000000000E-05      5.0000000000E-01       smaller              
 welflux_14              relative              1.0000000000E-02       0.0  switch                2.0000000000E+00       parabolic             1.0000000000E-05      5.0000000000E-01       smaller              
 welflux_21              relative              1.0000000000E-02       0.0  switch                2.0000000000E+00       parabolic             1.0000000000E-05      5.0000000000E-01       smaller              
 welflux_0               relative              1.0000000000E-02       0.0  switch                2.0000000000E+00       parabolic             1.0000000000E-05      5.0000000000E-01       smaller              
 welflux_17              relative              1.0000000000E-02       0.0  switch                2.0000000000E+00       parabolic             1.0000000000E-05      5.0000000000E-01       smaller              
 welflux_5               relative              1.0000000000E-02       0.0  switch                2.0000000000E+00       parabolic             1.0000000000E-05      5.0000000000E-01       smaller              
 welflux_7               relative              1.0000000000E-02       0.0  switch                2.0000000000E+00       parabolic             1.0000000000E-05      5.0000000000E-01       smaller              
 welflux_24              relative              1.0000000000E-02       0.0  switch                2.0000000000E+00       parabolic             1.0000000000E-05      5.0000000000E-01       smaller              
 welflux_12              relative              1.0000000000E-02       0.0  switch                2.0000000000E+00       parabolic             1.0000000000E-05      5.0000000000E-01       smaller              
 welflux_4               relative              1.0000000000E-02       0.0  switch                2.0000000000E+00       parabolic             1.0000000000E-05      5.0000000000E-01       smaller              
 welflux_19              relative              1.0000000000E-02       0.0  switch                2.0000000000E+00       parabolic             1.0000000000E-05      5.0000000000E-01       smaller              
 welflux_23              relative              1.0000000000E-02       0.0  switch                2.0000000000E+00       parabolic             1.0000000000E-05      5.0000000000E-01       smaller              
 welflux_20              relative              1.0000000000E-02       0.0  switch                2.0000000000E+00       parabolic             1.0000000000E-05      5.0000000000E-01       smaller              
 welflux_16              relative              1.0000000000E-02       0.0  switch                2.0000000000E+00       parabolic             1.0000000000E-05      5.0000000000E-01       smaller              
 welflux_9               relative              1.0000000000E-02       0.0  switch                2.0000000000E+00       parabolic             1.0000000000E-05      5.0000000000E-01       smaller              
 welflux_2               relative              1.0000000000E-02       0.0  switch                2.0000000000E+00       parabolic             1.0000000000E-05      5.0000000000E-01       smaller              
* parameter data
 npf_k33_0_000_000      log                    factor                3.0000000000E-01      3.0000000000E-02      3.0000000000E+00       npf_k33_0             1.0000000000E+00      0.0000000000E+00      1          
 npf_k33_0_000_001      tied                   factor                3.0000000000E-01      3.0000000000E-02      3.0000000000E+00       npf_k33_0             1.0000000000E+00      0.0000000000E+00      1          
 npf_k33_0_000_002      tied                   factor                3.0000000000E-01      3.0000000000E-02      3.0000000000E+00       npf_k33_0             1.0000000000E+00      0.0000000000E+00      1          
 npf_k33_0_000_003      tied                   factor                3.0000000000E-01      3.0000000000E-02      3.0000000000E+00       npf_k33_0             1.0000000000E+00      0.0000000000E+00      1          
 npf_k33_0_000_004      tied                   factor                3.0000000000E-01      3.0000000000E-02      3.0000000000E+00       npf_k33_0             1.0000000000E+00      0.0000000000E+00      1          
 npf_k33_0_000_005      tied                   factor                3.0000000000E-01      3.0000000000E-02      3.0000000000E+00       npf_k33_0             1.0000000000E+00      0.0000000000E+00      1          
 npf_k33_0_000_006      log                    factor                3.0000000000E-01      3.0000000000E-02      3.0000000000E+00       npf_k33_0             1.0000000000E+00      0.0000000000E+00      1          
 npf_k33_0_000_007      tied                   factor                3.0000000000E-01      3.0000000000E-02      3.0000000000E+00       npf_k33_0             1.0000000000E+00      0.0000000000E+00      1          
 npf_k33_0_000_008      tied                   factor                3.0000000000E-01      3.0000000000E-02      3.0000000000E+00       npf_k33_0             1.0000000000E+00      0.0000000000E+00      1          
 npf_k33_0_000_009      tied                   factor                3.0000000000E-01      3.0000000000E-02      3.0000000000E+00       npf_k33_0             1.0000000000E+00      0.0000000000E+00      1          
 npf_k33_0_000_010      tied                   factor                3.0000000000E-01      3.0000000000E-02      3.0000000000E+00       npf_k33_0             1.0000000000E+00      0.0000000000E+00      1          
 npf_k33_0_000_011      tied                   factor                3.0000000000E-01      3.0000000000E-02      3.0000000000E+00       npf_k33_0             1.0000000000E+00      0.0000000000E+00      1          
 npf_k33_0_000_012      log                    factor                3.0000000000E-01      3.0000000000E-02      3.0000000000E+00       npf_k33_0             1.0000000000E+00      0.0000000000E+00      1          
 npf_k33_0_000_013      tied                   factor                3.0000000000E-01      3.0000000000E-02      3.0000000000E+00       npf_k33_0             1.0000000000E+00      0.0000000000E+00      1          
 npf_k33_0_000_014      tied                   factor                3.0000000000E-01      3.0000000000E-02      3.0000000000E+00       npf_k33_0             1.0000000000E+00      0.0000000000E+00      1          
 npf_k33_0_000_015      tied                   factor                3.0000000000E-01      3.0000000000E-02      3.0000000000E+00       npf_k33_0             1.0000000000E+00      0.0000000000E+00      1          
 npf_k33_0_000_016      tied                   factor                3.0000000000E-01      3.0000000000E-02      3.0000000000E+00       npf_k33_0             1.0000000000E+00      0.0000000000E+00      1          
 npf_k33_0_000_017      tied                   factor                3.0000000000E-01      3.0000000000E-02      3.0000000000E+00       npf_k33_0             1.0000000000E+00      0.0000000000E+00      1          
 npf_k33_0_000_018      log                    factor                3.0000000000E-01      3.0000000000E-02      3.0000000000E+00       npf_k33_0             1.0000000000E+00      0.0000000000E+00      1          
 npf_k33_0_000_019      tied                   factor                3.0000000000E-01      3.0000000000E-02      3.0000000000E+00       npf_k33_0             1.0000000000E+00      0.0000000000E+00      1          
 npf_k33_0_001_000      tied                   factor                3.0000000000E-01      3.0000000000E-02      3.0000000000E+00       npf_k33_0             1.0000000000E+00      0.0000000000E+00      1          
 npf_k33_0_001_001      tied                   factor                3.0000000000E-01      3.0000000000E-02      3.0000000000E+00       npf_k33_0             1.0000000000E+00      0.0000000000E+00      1          
 npf_k33_0_001_002      tied                   factor                3.0000000000E-01      3.0000000000E-02      3.0000000000E+00       npf_k33_0             1.0000000000E+00      0.0000000000E+00      1          
 npf_k33_0_001_003      tied                   factor                3.0000000000E-01      3.0000000000E-02      3.0000000000E+00       npf_k33_0             1.0000000000E+00      0.0000000000E+00      1          
 npf_k33_0_001_004      tied                   factor                3.0000000000E-01      3.0000000000E-02      3.0000000000E+00       npf_k33_0             1.0000000000E+00      0.0000000000E+00      1          
 npf_k33_0_001_005      tied                   factor                3.0000000000E-01      3.0000000000E-02      3.0000000000E+00       npf_k33_0             1.0000000000E+00      0.0000000000E+00      1          
 npf_k33_0_001_006      tied                   factor                3.0000000000E-01      3.0000000000E-02      3.0000000000E+00       npf_k33_0             1.0000000000E+00      0.0000000000E+00      1          
 npf_k33_0_001_007      tied                   factor                3.0000000000E-01      3.0000000000E-02      3.0000000000E+00       npf_k33_0             1.0000000000E+00      0.0000000000E+00      1          
 npf_k33_0_001_008      tied                   factor                3.0000000000E-01      3.0000000000E-02      3.0000000000E+00       npf_k33_0             1.0000000000E+00      0.0000000000E+00      1          
 npf_k33_0_001_009      tied                   factor                3.0000000000E-01      3.0000000000E-02      3.0000000000E+00       npf_k33_0             1.0000000000E+00      0.0000000000E+00      1          
 npf_k33_0_001_010      tied                   factor                3.0000000000E-01      3.0000000000E-02      3.0000000000E+00       npf_k33_0             1.0000000000E+00      0.0000000000E+00      1          
 npf_k33_0_001_011      tied                   factor                3.0000000000E-01      3.0000000000E-02      3.0000000000E+00       npf_k33_0             1.0000000000E+00      0.0000000000E+00      1          
 npf_k33_0_001_012      tied                   factor                3.0000000000E-01      3.0000000000E-02      3.0000000000E+00       npf_k33_0             1.0000000000E+00      0.0000000000E+00      1          
 npf_k33_0_001_013      tied                   factor                3.0000000000E-01      3.0000000000E-02      3.0000000000E+00       npf_k33_0             1.0000000000E+00      0.0000000000E+00      1          
 npf_k33_0_001_014      tied                   factor                3.0000000000E-01      3.0000000000E-02      3.0000000000E+00       npf_k33_0             1.0000000000E+00      0.0000000000E+00      1          
 npf_k33_0_001_015      tied                   factor                3.0000000000E-01      3.0000000000E-02      3.0000000000E+00       npf_k33_0             1.0000000000E+00      0.0000000000E+00      1          
 npf_k33_0_001_016      tied                   factor                3.0000000000E-01      3.0000000000E-02      3.0000000000E+00       npf_k33_0             1.0000000000E+00      0.0000000000E+00      1          
 npf_k33_0_001_017      tied                   factor                3.0000000000E-01      3.0000000000E-02      3.0000000000E+00       npf_k33_0             1.0000000000E+00      0.0000000000E+00      1          
 npf_k33_0_001_018      tied                   factor                3.0000000000E-01      3.0000000000E-02      3.0000000000E+00       npf_k33_0             1.0000000000E+00      0.0000000000E+00      1          
 npf_k33_0_001_019      tied                   factor                3.0000000000E-01      3.0000000000E-02      3.0000000000E+00       npf_k33_0             1.0000000000E+00      0.0000000000E+00      1          
 npf_k33_0_002_000      tied                   factor                3.0000000000E-01      3.0000000000E-02      3.0000000000E+00       npf_k33_0             1.0000000000E+00      0.0000000000E+00      1          
 npf_k33_0_002_001      tied                   factor                3.0000000000E-01      3.0000000000E-02      3.0000000000E+00       npf_k33_0             1.0000000000E+00      0.0000000000E+00      1          
 npf_k33_0_002_002      tied                   factor                3.0000000000E-01      3.0000000000E-02      3.0000000000E+00       npf_k33_0             1.0000000000E+00      0.0000000000E+00      1          
 npf_k33_0_002_003      tied                   factor                3.0000000000E-01      3.0000000000E-02      3.0000000000E+00       npf_k33_0             1.0000000000E+00      0.0000000000E+00      1          
 npf_k33_0_002_004      tied                   factor                3.0000000000E-01      3.0000000000E-02      3.0000000000E+00       npf_k33_0             1.0000000000E+00      0.0000000000E+00      1          
 npf_k33_0_002_005      tied                   factor                3.0000000000E-01      3.0000000000E-02      3.0000000000E+00       npf_k33_0             1.0000000000E+00      0.0000000000E+00      1          
 npf_k33_0_002_006      tied                   factor                3.0000000000E-01      3.0000000000E-02      3.0000000000E+00       npf_k33_0             1.0000000000E+00      0.0000000000E+00      1          
 npf_k33_0_002_007      tied                   factor                3.0000000000E-01      3.0000000000E-02      3.0000000000E+00       npf_k33_0             1.0000000000E+00      0.0000000000E+00      1          
 npf_k33_0_002_008      tied                   factor                3.0000000000E-01      3.0000000000E-02      3.0000000000E+00       npf_k33_0             1.0000000000E+00      0.0000000000E+00      1          
 npf_k33_0_002_009      tied                   factor                3.0000000000E-01      3.0000000000E-02      3.0000000000E+00       npf_k33_0             1.0000000000E+00      0.0000000000E+00      1          
 npf_k33_0_002_010      tied                   factor                3.0000000000E-01      3.0000000000E-02      3.0000000000E+00       npf_k33_0             1.0000000000E+00      0.0000000000E+00      1          
 npf_k33_0_002_011      tied                   factor                3.0000000000E-01      3.0000000000E-02      3.0000000000E+00       npf_k33_0             1.0000000000E+00      0.0000000000E+00      1          
 npf_k33_0_002_012      tied                   factor                3.0000000000E-01      3.0000000000E-02      3.0000000000E+00       npf_k33_0             1.0000000000E+00      0.0000000000E+00      1          
 npf_k33_0_002_013      tied                   factor                3.0000000000E-01      3.0000000000E-02      3.0000000000E+00       npf_k33_0             1.0000000000E+00      0.0000000000E+00      1          
 npf_k33_0_002_014      tied                   factor                3.0000000000E-01      3.0000000000E-02      3.0000000000E+00       npf_k33_0             1.0000000000E+00      0.0000000000E+00      1          
 npf_k33_0_002_015      tied                   factor                3.0000000000E-01      3.0000000000E-02      3.0000000000E+00       npf_k33_0             1.0000000000E+00      0.0000000000E+00      1          
 npf_k33_0_002_016      tied                   factor                3.0000000000E-01      3.0000000000E-02      3.0000000000E+00       npf_k33_0             1.0000000000E+00      0.0000000000E+00      1          
 npf_k33_0_002_017      tied                   factor                3.0000000000E-01      3.0000000000E-02      3.0000000000E+00       npf_k33_0             1.0000000000E+00      0.0000000000E+00      1          
 npf_k33_0_002_018      tied                   factor                3.0000000000E-01      3.0000000000E-02      3.0000000000E+00       npf_k33_0             1.0000000000E+00      0.0000000000E+00      1          
 npf_k33_0_002_019      tied                   factor                3.0000000000E-01      3.0000000000E-02      3.0000000000E+00       npf_k33_0             1.0000000000E+00      0.0000000000E+00      1          
 npf_k33_0_003_000      tied                   factor                3.0000000000E-01      3.0000000000E-02      3.0000000000E+00       npf_k33_0             1.0000000000E+00      0.0000000000E+00      1          
 npf_k33_0_003_001      tied                   factor                3.0000000000E-01      3.0000000000E-02      3.0000000000E+00       npf_k33_0             1.0000000000E+00      0.0000000000E+00      1          
 npf_k33_0_003_002      tied                   factor                3.0000000000E-01      3.0000000000E-02      3.0000000000E+00       npf_k33_0             1.0000000000E+00      0.0000000000E+00      1          
 npf_k33_0_003_003      tied                   factor                3.0000000000E-01      3.0000000000E-02      3.0000000000E+00       npf_k33_0             1.0000000000E+00      0.0000000000E+00      1          
 npf_k33_0_003_004      tied                   factor                3.0000000000E-01      3.0000000000E-02      3.0000000000E+00       npf_k33_0             1.0000000000E+00      0.0000000000E+00      1          
 npf_k33_0_003_005      tied                   factor                3.0000000000E-01      3.0000000000E-02      3.0000000000E+00       npf_k33_0             1.0000000000E+00      0.0000000000E+00      1          
 npf_k33_0_003_006      tied                   factor                3.0000000000E-01      3.0000000000E-02      3.0000000000E+00       npf_k33_0             1.0000000000E+00      0.0000000000E+00      1          
 npf_k33_0_003_007      tied                   factor                3.0000000000E-01      3.0000000000E-02      3.0000000000E+00       npf_k33_0             1.0000000000E+00      0.0000000000E+00      1          
 npf_k33_0_003_008      tied                   factor                3.0000000000E-01      3.0000000000E-02      3.0000000000E+00       npf_k33_0             1.0000000000E+00      0.0000000000E+00      1          
 npf_k33_0_003_009      tied                   factor                3.0000000000E-01      3.0000000000E-02      3.0000000000E+00       npf_k33_0             1.0000000000E+00      0.0000000000E+00      1          
 npf_k33_0_003_010      tied                   factor                3.0000000000E-01      3.0000000000E-02      3.0000000000E+00       npf_k33_0             1.0000000000E+00      0.0000000000E+00      1          
 npf_k33_0_003_011      tied                   factor                3.0000000000E-01      3.0000000000E-02      3.0000000000E+00       npf_k33_0             1.0000000000E+00      0.0000000000E+00      1          
 npf_k33_0_003_012      tied                   factor                3.0000000000E-01      3.0000000000E-02      3.0000000000E+00       npf_k33_0             1.0000000000E+00      0.0000000000E+00      1          
 npf_k33_0_003_013      tied                   factor                3.0000000000E-01      3.0000000000E-02      3.0000000000E+00       npf_k33_0             1.0000000000E+00      0.0000000000E+00      1          
 npf_k33_0_003_014      tied                   factor                3.0000000000E-01      3.0000000000E-02      3.0000000000E+00       npf_k33_0             1.0000000000E+00      0.0000000000E+00      1          
 npf_k33_0_003_015      tied                   factor                3.0000000000E-01      3.0000000000E-02      3.0000000000E+00       npf_k33_0             1.0000000000E+00      0.0000000000E+00      1          
 npf_k33_0_003_016      tied                   factor                3.0000000000E-01      3.0000000000E-02      3.0000000000E+00       npf_k33_0             1.0000000000E+00      0.0000000000E+00      1          
 npf_k33_0_003_017      tied                   factor                3.0000000000E-01      3.0000000000E-02      3.0000000000E+00       npf_k33_0             1.0000000000E+00      0.0000000000E+00      1          
 npf_k33_0_003_018      tied                   factor                3.0000000000E-01      3.0000000000E-02      3.0000000000E+00       npf_k33_0             1.0000000000E+00      0.0000000000E+00      1          
 npf_k33_0_003_019      tied                   factor                3.0000000000E-01      3.0000000000E-02      3.0000000000E+00       npf_k33_0             1.0000000000E+00      0.0000000000E+00      1          
 npf_k33_0_004_000      tied                   factor                3.0000000000E-01      3.0000000000E-02      3.0000000000E+00       npf_k33_0             1.0000000000E+00      0.0000000000E+00      1          
 npf_k33_0_004_001      tied                   factor                3.0000000000E-01      3.0000000000E-02      3.0000000000E+00       npf_k33_0             1.0000000000E+00      0.0000000000E+00      1          
 npf_k33_0_004_002      tied                   factor                3.0000000000E-01      3.0000000000E-02      3.0000000000E+00       npf_k33_0             1.0000000000E+00      0.0000000000E+00      1          
 npf_k33_0_004_003      tied                   factor                3.0000000000E-01      3.0000000000E-02      3.0000000000E+00       npf_k33_0             1.0000000000E+00      0.0000000000E+00      1          
 npf_k33_0_004_004      tied                   factor                3.0000000000E-01      3.0000000000E-02      3.0000000000E+00       npf_k33_0             1.0000000000E+00      0.0000000000E+00      1          
 npf_k33_0_004_005      tied                   factor                3.0000000000E-01      3.0000000000E-02      3.0000000000E+00       npf_k33_0             1.0000000000E+00      0.0000000000E+00      1          
 npf_k33_0_004_006      tied                   factor                3.0000000000E-01      3.0000000000E-02      3.0000000000E+00       npf_k33_0             1.0000000000E+00      0.0000000000E+00      1          
 npf_k33_0_004_007      tied                   factor                3.0000000000E-01      3.0000000000E-02      3.0000000000E+00       npf_k33_0             1.0000000000E+00      0.0000000000E+00      1          
 npf_k33_0_004_008      tied                   factor                3.0000000000E-01      3.0000000000E-02      3.0000000000E+00       npf_k33_0             1.0000000000E+00      0.0000000000E+00      1          
 npf_k33_0_004_009      tied                   factor                3.0000000000E-01      3.0000000000E-02      3.0000000000E+00       npf_k33_0             1.0000000000E+00      0.0000000000E+00      1          
 npf_k33_0_004_010      tied                   factor                3.0000000000E-01      3.0000000000E-02      3.0000000000E+00       npf_k33_0             1.0000000000E+00      0.0000000000E+00      1          
 npf_k33_0_004_011      tied                   factor                3.0000000000E-01      3.0000000000E-02      3.0000000000E+00       npf_k33_0             1.0000000000E+00      0.0000000000E+00      1          
 npf_k33_0_004_012      tied                   factor                3.0000000000E-01      3.0000000000E-02      3.0000000000E+00       npf_k33_0             1.0000000000E+00      0.0000000000E+00      1          
 npf_k33_0_004_013      tied                   factor                3.0000000000E-01      3.0000000000E-02      3.0000000000E+00       npf_k33_0             1.0000000000E+00      0.0000000000E+00      1          
 npf_k33_0_004_014      tied                   factor                3.0000000000E-01      3.0000000000E-02      3.0000000000E+00       npf_k33_0             1.0000000000E+00      0.0000000000E+00      1          
 npf_k33_0_004_015      tied                   factor                3.0000000000E-01      3.0000000000E-02      3.0000000000E+00       npf_k33_0             1.0000000000E+00      0.0000000000E+00      1          
 npf_k33_0_004_016      tied                   factor                3.0000000000E-01      3.0000000000E-02      3.0000000000E+00       npf_k33_0             1.0000000000E+00      0.0000000000E+00      1          
 npf_k33_0_004_017      tied                   factor                3.0000000000E-01      3.0000000000E-02      3.0000000000E+00       npf_k33_0             1.0000000000E+00      0.0000000000E+00      1          
 npf_k33_0_004_018      tied                   factor                3.0000000000E-01      3.0000000000E-02      3.0000000000E+00       npf_k33_0             1.0000000000E+00      0.0000000000E+00      1          
 npf_k33_0_004_019      tied                   factor                3.0000000000E-01      3.0000000000E-02      3.0000000000E+00       npf_k33_0             1.0000000000E+00      0.0000000000E+00      1          