BEGIN Options
  READASARRAYS
END Options

BEGIN PERIOD  1
  recharge
    CONSTANT  1.00000000E-04
END PERIOD  1

BEGIN PERIOD  2
  recharge
    CONSTANT  5.02310700E-05
END PERIOD  2

BEGIN PERIOD  3
  recharge
    CONSTANT  5.16332800E-05
END PERIOD  3

BEGIN PERIOD  4
  recharge
    CONSTANT  5.30498600E-05
END PERIOD  4

BEGIN PERIOD  5
  recharge
    CONSTANT  5.44803900E-05
END PERIOD  5

BEGIN PERIOD  6
  recharge
    CONSTANT  5.59244500E-05
END PERIOD  6

BEGIN PERIOD  7
  recharge
    CONSTANT  5.73816000E-05
END PERIOD  7

BEGIN PERIOD  8
  recharge
    CONSTANT  5.88514200E-05
END PERIOD  8

BEGIN PERIOD  9
  recharge
    CONSTANT  6.03334700E-05
END PERIOD  9

BEGIN PERIOD  10
  recharge
    CONSTANT  6.18273000E-05
END PERIOD  10

BEGIN PERIOD  11
  recharge
    CONSTANT  6.33324700E-05
END PERIOD  11

BEGIN PERIOD  12
  recharge
    CONSTANT  6.48485400E-05
END PERIOD  12

BEGIN PERIOD  13
  recharge
    CONSTANT  6.63750500E-05
END PERIOD  13

BEGIN PERIOD  14
  recharge
    CONSTANT  6.79115500E-05
END PERIOD  14

BEGIN PERIOD  15
  recharge
    CONSTANT  6.94575900E-05
END PERIOD  15

BEGIN PERIOD  16
  recharge
    CONSTANT  7.10127100E-05
END PERIOD  16

BEGIN PERIOD  17
  recharge
    CONSTANT  7.25764300E-05
END PERIOD  17

BEGIN PERIOD  18
  recharge
    CONSTANT  7.41483100E-05
END PERIOD  18

BEGIN PERIOD  19
  recharge
    CONSTANT  7.57278700E-05
END PERIOD  19

BEGIN PERIOD  20
  recharge
    CONSTANT  7.73146300E-05
END PERIOD  20

BEGIN PERIOD  21
  recharge
    CONSTANT  7.89081500E-05
END PERIOD  21

BEGIN PERIOD  22
  recharge
    CONSTANT  8.05079200E-05
END PERIOD  22

BEGIN PERIOD  23
  recharge
    CONSTANT  8.21134900E-05
END PERIOD  23

BEGIN PERIOD  24
  recharge
    CONSTANT  8.37243700E-05
END PERIOD  24

BEGIN PERIOD  25
  recharge
    CONSTANT  8.53400900E-05
END PERIOD  25

BEGIN PERIOD  26
  recharge
    CONSTANT  8.69601600E-05
END PERIOD  26

BEGIN PERIOD  27
  recharge
    CONSTANT  8.85841100E-05
END PERIOD  27

BEGIN PERIOD  28
  recharge
    CONSTANT  9.02114600E-05
END PERIOD  28

BEGIN PERIOD  29
  recharge
    CONSTANT  9.18417100E-05
END PERIOD  29

BEGIN PERIOD  30
  recharge
    CONSTANT  9.34743800E-05
END PERIOD  30

BEGIN PERIOD  31
  recharge
    CONSTANT  9.51090000E-05
END PERIOD  31

BEGIN PERIOD  32
  recharge
    CONSTANT  9.67450600E-05
END PERIOD  32

BEGIN PERIOD  33
  recharge
    CONSTANT  9.83820900E-05
END PERIOD  33

BEGIN PERIOD  34
  recharge
    CONSTANT  1.00019600E-04
END PERIOD  34

BEGIN PERIOD  35
  recharge
    CONSTANT  1.01657100E-04
END PERIOD  35

BEGIN PERIOD  36
  recharge
    CONSTANT  1.03294100E-04
END PERIOD  36

BEGIN PERIOD  37
  recharge
    CONSTANT  1.04930200E-04
END PERIOD  37

BEGIN PERIOD  38
  recharge
    CONSTANT  1.06564700E-04
END PERIOD  38

BEGIN PERIOD  39
  recharge
    CONSTANT  1.08197400E-04
END PERIOD  39

BEGIN PERIOD  40
  recharge
    CONSTANT  1.09827600E-04
END PERIOD  40

BEGIN PERIOD  41
  recharge
    CONSTANT  1.11454800E-04
END PERIOD  41

BEGIN PERIOD  42
  recharge
    CONSTANT  1.13078700E-04
END PERIOD  42

BEGIN PERIOD  43
  recharge
    CONSTANT  1.14698700E-04
END PERIOD  43

BEGIN PERIOD  44
  recharge
    CONSTANT  1.16314300E-04
END PERIOD  44

BEGIN PERIOD  45
  recharge
    CONSTANT  1.17925000E-04
END PERIOD  45

BEGIN PERIOD  46
  recharge
    CONSTANT  1.19530500E-04
END PERIOD  46

BEGIN PERIOD  47
  recharge
    CONSTANT  1.21130100E-04
END PERIOD  47

BEGIN PERIOD  48
  recharge
    CONSTANT  1.22723400E-04
END PERIOD  48

BEGIN PERIOD  49
  recharge
    CONSTANT  1.24310100E-04
END PERIOD  49

BEGIN PERIOD  50
  recharge
    CONSTANT  1.25889400E-04
END PERIOD  50

BEGIN PERIOD  51
  recharge
    CONSTANT  1.27461100E-04
END PERIOD  51

BEGIN PERIOD  52
  recharge
    CONSTANT  1.29024600E-04
END PERIOD  52

BEGIN PERIOD  53
  recharge
    CONSTANT  1.30579500E-04
END PERIOD  53

BEGIN PERIOD  54
  recharge
    CONSTANT  1.32125400E-04
END PERIOD  54

BEGIN PERIOD  55
  recharge
    CONSTANT  1.33661600E-04
END PERIOD  55

BEGIN PERIOD  56
  recharge
    CONSTANT  1.35187900E-04
END PERIOD  56

BEGIN PERIOD  57
  recharge
    CONSTANT  1.36703700E-04
END PERIOD  57

BEGIN PERIOD  58
  recharge
    CONSTANT  1.38208600E-04
END PERIOD  58

BEGIN PERIOD  59
  recharge
    CONSTANT  1.39702200E-04
END PERIOD  59

BEGIN PERIOD  60
  recharge
    CONSTANT  1.41183900E-04
END PERIOD  60

BEGIN PERIOD  61
  recharge
    CONSTANT  1.42653400E-04
END PERIOD  61

BEGIN PERIOD  62
  recharge
    CONSTANT  1.44110300E-04
END PERIOD  62

BEGIN PERIOD  63
  recharge
    CONSTANT  1.45554000E-04
END PERIOD  63

BEGIN PERIOD  64
  recharge
    CONSTANT  1.46984200E-04
END PERIOD  64

BEGIN PERIOD  65
  recharge
    CONSTANT  1.48400500E-04
END PERIOD  65

BEGIN PERIOD  66
  recharge
    CONSTANT  1.49802300E-04
END PERIOD  66

BEGIN PERIOD  67
  recharge
    CONSTANT  1.51189400E-04
END PERIOD  67

BEGIN PERIOD  68
  recharge
    CONSTANT  1.52561200E-04
END PERIOD  68

BEGIN PERIOD  69
  recharge
    CONSTANT  1.53917500E-04
END PERIOD  69

BEGIN PERIOD  70
  recharge
    CONSTANT  1.55257700E-04
END PERIOD  70

BEGIN PERIOD  71
  recharge
    CONSTANT  1.56581500E-04
END PERIOD  71

BEGIN PERIOD  72
  recharge
    CONSTANT  1.57888500E-04
END PERIOD  72

BEGIN PERIOD  73
  recharge
    CONSTANT  1.59178200E-04
END PERIOD  73

BEGIN PERIOD  74
  recharge
    CONSTANT  1.60450500E-04
END PERIOD  74

BEGIN PERIOD  75
  recharge
    CONSTANT  1.61704700E-04
END PERIOD  75

BEGIN PERIOD  76
  recharge
    CONSTANT  1.62940600E-04
END PERIOD  76

BEGIN PERIOD  77
  recharge
    CONSTANT  1.64157800E-04
END PERIOD  77

BEGIN PERIOD  78
  recharge
    CONSTANT  1.65355900E-04
END PERIOD  78

BEGIN PERIOD  79
  recharge
    CONSTANT  1.66534600E-04
END PERIOD  79

BEGIN PERIOD  80
  recharge
    CONSTANT  1.67693600E-04
END PERIOD  80

BEGIN PERIOD  81
  recharge
    CONSTANT  1.68832400E-04
END PERIOD  81

BEGIN PERIOD  82
  recharge
    CONSTANT  1.69950800E-04
END PERIOD  82

BEGIN PERIOD  83
  recharge
    CONSTANT  1.71048400E-04
END PERIOD  83

BEGIN PERIOD  84
  recharge
    CONSTANT  1.72124900E-04
END PERIOD  84

BEGIN PERIOD  85
  recharge
    CONSTANT  1.73179900E-04
END PERIOD  85

BEGIN PERIOD  86
  recharge
    CONSTANT  1.74213200E-04
END PERIOD  86

BEGIN PERIOD  87
  recharge
    CONSTANT  1.75224500E-04
END PERIOD  87

BEGIN PERIOD  88
  recharge
    CONSTANT  1.76213400E-04
END PERIOD  88

BEGIN PERIOD  89
  recharge
    CONSTANT  1.77179700E-04
END PERIOD  89

BEGIN PERIOD  90
  recharge
    CONSTANT  1.78123000E-04
END PERIOD  90

BEGIN PERIOD  91
  recharge
    CONSTANT  1.79043100E-04
END PERIOD  91

BEGIN PERIOD  92
  recharge
    CONSTANT  1.79939700E-04
END PERIOD  92

BEGIN PERIOD  94
  recharge
    CONSTANT  1.80812600E-04
END PERIOD  94

BEGIN PERIOD  95
  recharge
    CONSTANT  1.81661500E-04
END PERIOD  95

BEGIN PERIOD  96
  recharge
    CONSTANT  1.82486100E-04
END PERIOD  96

BEGIN PERIOD  97
  recharge
    CONSTANT  1.83286200E-04
END PERIOD  97

BEGIN PERIOD  98
  recharge
    CONSTANT  1.84061500E-04
END PERIOD  98

BEGIN PERIOD  99
  recharge
    CONSTANT  1.84811900E-04
END PERIOD  99

BEGIN PERIOD  100
  recharge
    CONSTANT  1.85537000E-04
END PERIOD  100

BEGIN PERIOD  101
  recharge
    CONSTANT  1.86236800E-04
END PERIOD  101

BEGIN PERIOD  102
  recharge
    CONSTANT  1.86910900E-04
END PERIOD  102

BEGIN PERIOD  103
  recharge
    CONSTANT  1.87559200E-04
END PERIOD  103

BEGIN PERIOD  104
  recharge
    CONSTANT  1.88181500E-04
END PERIOD  104

BEGIN PERIOD  105
  recharge
    CONSTANT  1.88777600E-04
END PERIOD  105

BEGIN PERIOD  106
  recharge
    CONSTANT  1.89347300E-04
END PERIOD  106

BEGIN PERIOD  107
  recharge
    CONSTANT  1.89890400E-04
END PERIOD  107

BEGIN PERIOD  108
  recharge
    CONSTANT  1.90406900E-04
END PERIOD  108

BEGIN PERIOD  109
  recharge
    CONSTANT  1.90896400E-04
END PERIOD  109

BEGIN PERIOD  110
  recharge
    CONSTANT  1.91359000E-04
END PERIOD  110

BEGIN PERIOD  111
  recharge
    CONSTANT  1.91794400E-04
END PERIOD  111

BEGIN PERIOD  112
  recharge
    CONSTANT  1.92202600E-04
END PERIOD  112

BEGIN PERIOD  113
  recharge
    CONSTANT  1.92583300E-04
END PERIOD  113

BEGIN PERIOD  114
  recharge
    CONSTANT  1.92936600E-04
END PERIOD  114

BEGIN PERIOD  115
  recharge
    CONSTANT  1.93262200E-04
END PERIOD  115

BEGIN PERIOD  116
  recharge
    CONSTANT  1.93560100E-04
END PERIOD  116

BEGIN PERIOD  117
  recharge
    CONSTANT  1.93830300E-04
END PERIOD  117

BEGIN PERIOD  118
  recharge
    CONSTANT  1.94072500E-04
END PERIOD  118

BEGIN PERIOD  119
  recharge
    CONSTANT  1.94286800E-04
END PERIOD  119

BEGIN PERIOD  120
  recharge
    CONSTANT  1.94473000E-04
END PERIOD  120

BEGIN PERIOD  121
  recharge
    CONSTANT  1.94631300E-04
END PERIOD  121

BEGIN PERIOD  122
  recharge
    CONSTANT  1.94761300E-04
END PERIOD  122

BEGIN PERIOD  123
  recharge
    CONSTANT  1.94863200E-04
END PERIOD  123

BEGIN PERIOD  124
  recharge
    CONSTANT  1.94937000E-04
END PERIOD  124

BEGIN PERIOD  125
  recharge
    CONSTANT  1.94982500E-04
END PERIOD  125

BEGIN PERIOD  126
  recharge
    CONSTANT  1.94999800E-04
END PERIOD  126

BEGIN PERIOD  127
  recharge
    CONSTANT  1.94988900E-04
END PERIOD  127

BEGIN PERIOD  128
  recharge
    CONSTANT  1.94949700E-04
END PERIOD  128

BEGIN PERIOD  129
  recharge
    CONSTANT  1.94882400E-04
END PERIOD  129

BEGIN PERIOD  130
  recharge
    CONSTANT  1.94786800E-04
END PERIOD  130

BEGIN PERIOD  131
  recharge
    CONSTANT  1.94663100E-04
END PERIOD  131

BEGIN PERIOD  132
  recharge
    CONSTANT  1.94511300E-04
END PERIOD  132

BEGIN PERIOD  133
  recharge
    CONSTANT  1.94331300E-04
END PERIOD  133

BEGIN PERIOD  134
  recharge
    CONSTANT  1.94123400E-04
END PERIOD  134

BEGIN PERIOD  135
  recharge
    CONSTANT  1.93887400E-04
END PERIOD  135

BEGIN PERIOD  136
  recharge
    CONSTANT  1.93623600E-04
END PERIOD  136

BEGIN PERIOD  137
  recharge
    CONSTANT  1.93332000E-04
END PERIOD  137

BEGIN PERIOD  138
  recharge
    CONSTANT  1.93012600E-04
END PERIOD  138

BEGIN PERIOD  139
  recharge
    CONSTANT  1.92665600E-04
END PERIOD  139

BEGIN PERIOD  140
  recharge
    CONSTANT  1.92291100E-04
END PERIOD  140

BEGIN PERIOD  141
  recharge
    CONSTANT  1.91889100E-04
END PERIOD  141

BEGIN PERIOD  142
  recharge
    CONSTANT  1.91459800E-04
END PERIOD  142

BEGIN PERIOD  143
  recharge
    CONSTANT  1.91003400E-04
END PERIOD  143

BEGIN PERIOD  144
  recharge
    CONSTANT  1.90519900E-04
END PERIOD  144

BEGIN PERIOD  145
  recharge
    CONSTANT  1.90009500E-04
END PERIOD  145

BEGIN PERIOD  146
  recharge
    CONSTANT  1.89472400E-04
END PERIOD  146

BEGIN PERIOD  147
  recharge
    CONSTANT  1.88908700E-04
END PERIOD  147

BEGIN PERIOD  148
  recharge
    CONSTANT  1.88318500E-04
END PERIOD  148

BEGIN PERIOD  149
  recharge
    CONSTANT  1.87702200E-04
END PERIOD  149

BEGIN PERIOD  150
  recharge
    CONSTANT  1.87059700E-04
END PERIOD  150

BEGIN PERIOD  151
  recharge
    CONSTANT  1.86391400E-04
END PERIOD  151

BEGIN PERIOD  152
  recharge
    CONSTANT  1.85697400E-04
END PERIOD  152

BEGIN PERIOD  153
  recharge
    CONSTANT  1.84978000E-04
END PERIOD  153

BEGIN PERIOD  154
  recharge
    CONSTANT  1.84233300E-04
END PERIOD  154

BEGIN PERIOD  155
  recharge
    CONSTANT  1.83463600E-04
END PERIOD  155

BEGIN PERIOD  156
  recharge
    CONSTANT  1.82669100E-04
END PERIOD  156

BEGIN PERIOD  157
  recharge
    CONSTANT  1.81850000E-04
END PERIOD  157

BEGIN PERIOD  158
  recharge
    CONSTANT  1.81006600E-04
END PERIOD  158

BEGIN PERIOD  159
  recharge
    CONSTANT  1.80139100E-04
END PERIOD  159

BEGIN PERIOD  160
  recharge
    CONSTANT  1.79247900E-04
END PERIOD  160

BEGIN PERIOD  161
  recharge
    CONSTANT  1.78333000E-04
END PERIOD  161

BEGIN PERIOD  162
  recharge
    CONSTANT  1.77394900E-04
END PERIOD  162

BEGIN PERIOD  163
  recharge
    CONSTANT  1.76433800E-04
END PERIOD  163

BEGIN PERIOD  164
  recharge
    CONSTANT  1.75450000E-04
END PERIOD  164

BEGIN PERIOD  165
  recharge
    CONSTANT  1.74443800E-04
END PERIOD  165

BEGIN PERIOD  166
  recharge
    CONSTANT  1.73415400E-04
END PERIOD  166

BEGIN PERIOD  167
  recharge
    CONSTANT  1.72365300E-04
END PERIOD  167

BEGIN PERIOD  168
  recharge
    CONSTANT  1.71293600E-04
END PERIOD  168

BEGIN PERIOD  169
  recharge
    CONSTANT  1.70200700E-04
END PERIOD  169

BEGIN PERIOD  170
  recharge
    CONSTANT  1.69087000E-04
END PERIOD  170

BEGIN PERIOD  171
  recharge
    CONSTANT  1.67952800E-04
END PERIOD  171

BEGIN PERIOD  172
  recharge
    CONSTANT  1.66798400E-04
END PERIOD  172

BEGIN PERIOD  173
  recharge
    CONSTANT  1.65624100E-04
END PERIOD  173

BEGIN PERIOD  174
  recharge
    CONSTANT  1.64430300E-04
END PERIOD  174

BEGIN PERIOD  175
  recharge
    CONSTANT  1.63217400E-04
END PERIOD  175

BEGIN PERIOD  176
  recharge
    CONSTANT  1.61985700E-04
END PERIOD  176

BEGIN PERIOD  177
  recharge
    CONSTANT  1.60735600E-04
END PERIOD  177

BEGIN PERIOD  178
  recharge
    CONSTANT  1.59467400E-04
END PERIOD  178

BEGIN PERIOD  179
  recharge
    CONSTANT  1.58181500E-04
END PERIOD  179

BEGIN PERIOD  180
  recharge
    CONSTANT  1.56878400E-04
END PERIOD  180

BEGIN PERIOD  181
  recharge
    CONSTANT  1.55558400E-04
END PERIOD  181

BEGIN PERIOD  182
  recharge
    CONSTANT  1.54221900E-04
END PERIOD  182

BEGIN PERIOD  183
  recharge
    CONSTANT  1.52869200E-04
END PERIOD  183

BEGIN PERIOD  184
  recharge
    CONSTANT  1.51500800E-04
END PERIOD  184

BEGIN PERIOD  185
  recharge
    CONSTANT  1.50117200E-04
END PERIOD  185

BEGIN PERIOD  186
  recharge
    CONSTANT  1.48718600E-04
END PERIOD  186

BEGIN PERIOD  187
  recharge
    CONSTANT  1.47305600E-04
END PERIOD  187

BEGIN PERIOD  188
  recharge
    CONSTANT  1.45878500E-04
END PERIOD  188

BEGIN PERIOD  189
  recharge
    CONSTANT  1.44437800E-04
END PERIOD  189

BEGIN PERIOD  190
  recharge
    CONSTANT  1.42983900E-04
END PERIOD  190

BEGIN PERIOD  191
  recharge
    CONSTANT  1.41517200E-04
END PERIOD  191

BEGIN PERIOD  192
  recharge
    CONSTANT  1.40038200E-04
END PERIOD  192

BEGIN PERIOD  193
  recharge
    CONSTANT  1.38547200E-04
END PERIOD  193

BEGIN PERIOD  194
  recharge
    CONSTANT  1.37044900E-04
END PERIOD  194

BEGIN PERIOD  195
  recharge
    CONSTANT  1.35531500E-04
END PERIOD  195

BEGIN PERIOD  196
  recharge
    CONSTANT  1.34007500E-04
END PERIOD  196

BEGIN PERIOD  197
  recharge
    CONSTANT  1.32473500E-04
END PERIOD  197

BEGIN PERIOD  198
  recharge
    CONSTANT  1.30929800E-04
END PERIOD  198

BEGIN PERIOD  199
  recharge
    CONSTANT  1.29376900E-04
END PERIOD  199

BEGIN PERIOD  200
  recharge
    CONSTANT  1.27815300E-04
END PERIOD  200

BEGIN PERIOD  201
  recharge
    CONSTANT  1.26245400E-04
END PERIOD  201

BEGIN PERIOD  202
  recharge
    CONSTANT  1.24667700E-04
END PERIOD  202

BEGIN PERIOD  203
  recharge
    CONSTANT  1.23082700E-04
END PERIOD  203

BEGIN PERIOD  204
  recharge
    CONSTANT  1.21490800E-04
END PERIOD  204

BEGIN PERIOD  205
  recharge
    CONSTANT  1.19892600E-04
END PERIOD  205

BEGIN PERIOD  206
  recharge
    CONSTANT  1.18288400E-04
END PERIOD  206

BEGIN PERIOD  207
  recharge
    CONSTANT  1.16678800E-04
END PERIOD  207

BEGIN PERIOD  208
  recharge
    CONSTANT  1.15064300E-04
END PERIOD  208

BEGIN PERIOD  209
  recharge
    CONSTANT  1.13445200E-04
END PERIOD  209

BEGIN PERIOD  210
  recharge
    CONSTANT  1.11822200E-04
END PERIOD  210

BEGIN PERIOD  211
  recharge
    CONSTANT  1.10195700E-04
END PERIOD  211

BEGIN PERIOD  212
  recharge
    CONSTANT  1.08566100E-04
END PERIOD  212

BEGIN PERIOD  213
  recharge
    CONSTANT  1.06934000E-04
END PERIOD  213

BEGIN PERIOD  214
  recharge
    CONSTANT  1.05299800E-04
END PERIOD  214

BEGIN PERIOD  215
  recharge
    CONSTANT  1.03664100E-04
END PERIOD  215

BEGIN PERIOD  216
  recharge
    CONSTANT  1.02027200E-04
END PERIOD  216

BEGIN PERIOD  217
  recharge
    CONSTANT  1.00389800E-04
END PERIOD  217

BEGIN PERIOD  218
  recharge
    CONSTANT  9.87522300E-05
END PERIOD  218

BEGIN PERIOD  219
  recharge
    CONSTANT  9.71150400E-05
END PERIOD  219

BEGIN PERIOD  220
  recharge
    CONSTANT  9.54787100E-05
END PERIOD  220

BEGIN PERIOD  221
  recharge
    CONSTANT  9.38437200E-05
END PERIOD  221

BEGIN PERIOD  222
  recharge
    CONSTANT  9.22105700E-05
END PERIOD  222

BEGIN PERIOD  223
  recharge
    CONSTANT  9.05797400E-05
END PERIOD  223

BEGIN PERIOD  224
  recharge
    CONSTANT  8.89517000E-05
END PERIOD  224

BEGIN PERIOD  225
  recharge
    CONSTANT  8.73269300E-05
END PERIOD  225

BEGIN PERIOD  226
  recharge
    CONSTANT  8.57059400E-05
END PERIOD  226

BEGIN PERIOD  227
  recharge
    CONSTANT  8.40892000E-05
END PERIOD  227

BEGIN PERIOD  228
  recharge
    CONSTANT  8.24771700E-05
END PERIOD  228

BEGIN PERIOD  229
  recharge
    CONSTANT  8.08703600E-05
END PERIOD  229

BEGIN PERIOD  230
  recharge
    CONSTANT  7.92692400E-05
END PERIOD  230

BEGIN PERIOD  231
  recharge
    CONSTANT  7.76742700E-05
END PERIOD  231

BEGIN PERIOD  232
  recharge
    CONSTANT  7.60859300E-05
END PERIOD  232

BEGIN PERIOD  233
  recharge
    CONSTANT  7.45047100E-05
END PERIOD  233

BEGIN PERIOD  234
  recharge
    CONSTANT  7.29310600E-05
END PERIOD  234

BEGIN PERIOD  235
  recharge
    CONSTANT  7.13654400E-05
END PERIOD  235

BEGIN PERIOD  236
  recharge
    CONSTANT  6.98083500E-05
END PERIOD  236

BEGIN PERIOD  237
  recharge
    CONSTANT  6.82602200E-05
END PERIOD  237

BEGIN PERIOD  238
  recharge
    CONSTANT  6.67215100E-05
END PERIOD  238

BEGIN PERIOD  239
  recharge
    CONSTANT  6.51927000E-05
END PERIOD  239

BEGIN PERIOD  240
  recharge
    CONSTANT  6.36742300E-05
END PERIOD  240

BEGIN PERIOD  241
  recharge
    CONSTANT  6.21665600E-05
END PERIOD  241

BEGIN PERIOD  242
  recharge
    CONSTANT  6.06701300E-05
END PERIOD  242

BEGIN PERIOD  243
  recharge
    CONSTANT  5.91853800E-05
END PERIOD  243

BEGIN PERIOD  244
  recharge
    CONSTANT  5.77127600E-05
END PERIOD  244

BEGIN PERIOD  245
  recharge
    CONSTANT  5.62527100E-05
END PERIOD  245

BEGIN PERIOD  246
  recharge
    CONSTANT  5.48056500E-05
END PERIOD  246

BEGIN PERIOD  247
  recharge
    CONSTANT  5.33720200E-05
END PERIOD  247

BEGIN PERIOD  248
  recharge
    CONSTANT  5.19522500E-05
END PERIOD  248

BEGIN PERIOD  249
  recharge
    CONSTANT  5.05467500E-05
END PERIOD  249

BEGIN PERIOD  250
  recharge
    CONSTANT  4.91559500E-05
END PERIOD  250

BEGIN PERIOD  251
  recharge
    CONSTANT  4.77802600E-05
END PERIOD  251

BEGIN PERIOD  252
  recharge
    CONSTANT  4.64200900E-05
END PERIOD  252

BEGIN PERIOD  253
  recharge
    CONSTANT  4.50758300E-05
END PERIOD  253

BEGIN PERIOD  254
  recharge
    CONSTANT  4.37478900E-05
END PERIOD  254

BEGIN PERIOD  255
  recharge
    CONSTANT  4.24366700E-05
END PERIOD  255

BEGIN PERIOD  256
  recharge
    CONSTANT  4.11425500E-05
END PERIOD  256

BEGIN PERIOD  257
  recharge
    CONSTANT  3.98659200E-05
END PERIOD  257

BEGIN PERIOD  258
  recharge
    CONSTANT  3.86071600E-05
END PERIOD  258

BEGIN PERIOD  259
  recharge
    CONSTANT  3.73666400E-05
END PERIOD  259

BEGIN PERIOD  260
  recharge
    CONSTANT  3.61447300E-05
END PERIOD  260

BEGIN PERIOD  261
  recharge
    CONSTANT  3.49417900E-05
END PERIOD  261

BEGIN PERIOD  262
  recharge
    CONSTANT  3.37581900E-05
END PERIOD  262

BEGIN PERIOD  263
  recharge
    CONSTANT  3.25942700E-05
END PERIOD  263

BEGIN PERIOD  264
  recharge
    CONSTANT  3.14503700E-05
END PERIOD  264

BEGIN PERIOD  265
  recharge
    CONSTANT  3.03268500E-05
END PERIOD  265

BEGIN PERIOD  266
  recharge
    CONSTANT  2.92240300E-05
END PERIOD  266

BEGIN PERIOD  267
  recharge
    CONSTANT  2.81422400E-05
END PERIOD  267

BEGIN PERIOD  268
  recharge
    CONSTANT  2.70818000E-05
END PERIOD  268

BEGIN PERIOD  269
  recharge
    CONSTANT  2.60430200E-05
END PERIOD  269

BEGIN PERIOD  270
  recharge
    CONSTANT  2.50262200E-05
END PERIOD  270

BEGIN PERIOD  271
  recharge
    CONSTANT  2.40317000E-05
END PERIOD  271

BEGIN PERIOD  272
  recharge
    CONSTANT  2.30597500E-05
END PERIOD  272

BEGIN PERIOD  273
  recharge
    CONSTANT  2.21106600E-05
END PERIOD  273

BEGIN PERIOD  274
  recharge
    CONSTANT  2.11847200E-05
END PERIOD  274

BEGIN PERIOD  275
  recharge
    CONSTANT  2.02822000E-05
END PERIOD  275

BEGIN PERIOD  276
  recharge
    CONSTANT  1.94033600E-05
END PERIOD  276

BEGIN PERIOD  277
  recharge
    CONSTANT  1.85484700E-05
END PERIOD  277

BEGIN PERIOD  278
  recharge
    CONSTANT  1.77177800E-05
END PERIOD  278

BEGIN PERIOD  279
  recharge
    CONSTANT  1.69115400E-05
END PERIOD  279

BEGIN PERIOD  280
  recharge
    CONSTANT  1.61299900E-05
END PERIOD  280

BEGIN PERIOD  281
  recharge
    CONSTANT  1.53733600E-05
END PERIOD  281

BEGIN PERIOD  282
  recharge
    CONSTANT  1.46418800E-05
END PERIOD  282

BEGIN PERIOD  283
  recharge
    CONSTANT  1.39357600E-05
END PERIOD  283

BEGIN PERIOD  284
  recharge
    CONSTANT  1.32552100E-05
END PERIOD  284

BEGIN PERIOD  285
  recharge
    CONSTANT  1.26004400E-05
END PERIOD  285

BEGIN PERIOD  286
  recharge
    CONSTANT  1.19716300E-05
END PERIOD  286

BEGIN PERIOD  287
  recharge
    CONSTANT  1.13689800E-05
END PERIOD  287

BEGIN PERIOD  288
  recharge
    CONSTANT  1.07926700E-05
END PERIOD  288

BEGIN PERIOD  289
  recharge
    CONSTANT  1.02428700E-05
END PERIOD  289

BEGIN PERIOD  290
  recharge
    CONSTANT  9.71973300E-06
END PERIOD  290

BEGIN PERIOD  291
  recharge
    CONSTANT  9.22342200E-06
END PERIOD  291

BEGIN PERIOD  292
  recharge
    CONSTANT  8.75408500E-06
END PERIOD  292

BEGIN PERIOD  293
  recharge
    CONSTANT  8.31186000E-06
END PERIOD  293

BEGIN PERIOD  294
  recharge
    CONSTANT  7.89687900E-06
END PERIOD  294

BEGIN PERIOD  295
  recharge
    CONSTANT  7.50926500E-06
END PERIOD  295

BEGIN PERIOD  296
  recharge
    CONSTANT  7.14913300E-06
END PERIOD  296

BEGIN PERIOD  297
  recharge
    CONSTANT  6.81659000E-06
END PERIOD  297

BEGIN PERIOD  298
  recharge
    CONSTANT  6.51173600E-06
END PERIOD  298

BEGIN PERIOD  299
  recharge
    CONSTANT  6.23466000E-06
END PERIOD  299

BEGIN PERIOD  300
  recharge
    CONSTANT  5.98544600E-06
END PERIOD  300

BEGIN PERIOD  301
  recharge
    CONSTANT  5.76416600E-06
END PERIOD  301

BEGIN PERIOD  302
  recharge
    CONSTANT  5.57088700E-06
END PERIOD  302

BEGIN PERIOD  303
  recharge
    CONSTANT  5.40566500E-06
END PERIOD  303

BEGIN PERIOD  304
  recharge
    CONSTANT  5.26855200E-06
END PERIOD  304

BEGIN PERIOD  305
  recharge
    CONSTANT  5.15958700E-06
END PERIOD  305

BEGIN PERIOD  306
  recharge
    CONSTANT  5.07880100E-06
END PERIOD  306

BEGIN PERIOD  307
  recharge
    CONSTANT  5.02622100E-06
END PERIOD  307

BEGIN PERIOD  308
  recharge
    CONSTANT  5.00186000E-06
END PERIOD  308

BEGIN PERIOD  309
  recharge
    CONSTANT  5.00572700E-06
END PERIOD  309

BEGIN PERIOD  310
  recharge
    CONSTANT  5.03781900E-06
END PERIOD  310

BEGIN PERIOD  311
  recharge
    CONSTANT  5.09812800E-06
END PERIOD  311

BEGIN PERIOD  312
  recharge
    CONSTANT  5.18663700E-06
END PERIOD  312

BEGIN PERIOD  313
  recharge
    CONSTANT  5.30331700E-06
END PERIOD  313

BEGIN PERIOD  314
  recharge
    CONSTANT  5.44813500E-06
END PERIOD  314

BEGIN PERIOD  315
  recharge
    CONSTANT  5.62104800E-06
END PERIOD  315

BEGIN PERIOD  316
  recharge
    CONSTANT  5.82200400E-06
END PERIOD  316

BEGIN PERIOD  317
  recharge
    CONSTANT  6.05094300E-06
END PERIOD  317

BEGIN PERIOD  318
  recharge
    CONSTANT  6.30779900E-06
END PERIOD  318

BEGIN PERIOD  319
  recharge
    CONSTANT  6.59249300E-06
END PERIOD  319

BEGIN PERIOD  320
  recharge
    CONSTANT  6.90494200E-06
END PERIOD  320

BEGIN PERIOD  321
  recharge
    CONSTANT  7.24505300E-06
END PERIOD  321

BEGIN PERIOD  322
  recharge
    CONSTANT  7.61272400E-06
END PERIOD  322

BEGIN PERIOD  323
  recharge
    CONSTANT  8.00784800E-06
END PERIOD  323

BEGIN PERIOD  324
  recharge
    CONSTANT  8.43030500E-06
END PERIOD  324

BEGIN PERIOD  325
  recharge
    CONSTANT  8.87997100E-06
END PERIOD  325

BEGIN PERIOD  326
  recharge
    CONSTANT  9.35671100E-06
END PERIOD  326

BEGIN PERIOD  327
  recharge
    CONSTANT  9.86038600E-06
END PERIOD  327

BEGIN PERIOD  328
  recharge
    CONSTANT  1.03908400E-05
END PERIOD  328

BEGIN PERIOD  329
  recharge
    CONSTANT  1.09479300E-05
END PERIOD  329

BEGIN PERIOD  330
  recharge
    CONSTANT  1.15314700E-05
END PERIOD  330

BEGIN PERIOD  331
  recharge
    CONSTANT  1.21413000E-05
END PERIOD  331

BEGIN PERIOD  332
  recharge
    CONSTANT  1.27772400E-05
END PERIOD  332

BEGIN PERIOD  333
  recharge
    CONSTANT  1.34390900E-05
END PERIOD  333

BEGIN PERIOD  334
  recharge
    CONSTANT  1.41266700E-05
END PERIOD  334

BEGIN PERIOD  335
  recharge
    CONSTANT  1.48397600E-05
END PERIOD  335

BEGIN PERIOD  336
  recharge
    CONSTANT  1.55781500E-05
END PERIOD  336

BEGIN PERIOD  337
  recharge
    CONSTANT  1.63416300E-05
END PERIOD  337

BEGIN PERIOD  338
  recharge
    CONSTANT  1.71299700E-05
END PERIOD  338

BEGIN PERIOD  339
  recharge
    CONSTANT  1.79429300E-05
END PERIOD  339

BEGIN PERIOD  340
  recharge
    CONSTANT  1.87802700E-05
END PERIOD  340

BEGIN PERIOD  341
  recharge
    CONSTANT  1.96417500E-05
END PERIOD  341

BEGIN PERIOD  342
  recharge
    CONSTANT  2.05271000E-05
END PERIOD  342

BEGIN PERIOD  343
  recharge
    CONSTANT  2.14360700E-05
END PERIOD  343

BEGIN PERIOD  344
  recharge
    CONSTANT  2.23683800E-05
END PERIOD  344

BEGIN PERIOD  345
  recharge
    CONSTANT  2.33237600E-05
END PERIOD  345

BEGIN PERIOD  346
  recharge
    CONSTANT  2.43019200E-05
END PERIOD  346

BEGIN PERIOD  347
  recharge
    CONSTANT  2.53025700E-05
END PERIOD  347

BEGIN PERIOD  348
  recharge
    CONSTANT  2.63254200E-05
END PERIOD  348

BEGIN PERIOD  349
  recharge
    CONSTANT  2.73701700E-05
END PERIOD  349

BEGIN PERIOD  350
  recharge
    CONSTANT  2.84364900E-05
END PERIOD  350

BEGIN PERIOD  351
  recharge
    CONSTANT  2.95240700E-05
END PERIOD  351

BEGIN PERIOD  352
  recharge
    CONSTANT  3.06326000E-05
END PERIOD  352

BEGIN PERIOD  353
  recharge
    CONSTANT  3.17617400E-05
END PERIOD  353

BEGIN PERIOD  354
  recharge
    CONSTANT  3.29111500E-05
END PERIOD  354

BEGIN PERIOD  355
  recharge
    CONSTANT  3.40805000E-05
END PERIOD  355

BEGIN PERIOD  356
  recharge
    CONSTANT  3.52694400E-05
END PERIOD  356

BEGIN PERIOD  357
  recharge
    CONSTANT  3.64776000E-05
END PERIOD  357

BEGIN PERIOD  358
  recharge
    CONSTANT  3.77046500E-05
END PERIOD  358

BEGIN PERIOD  359
  recharge
    CONSTANT  3.89502000E-05
END PERIOD  359

BEGIN PERIOD  360
  recharge
    CONSTANT  4.02139000E-05
END PERIOD  360

BEGIN PERIOD  361
  recharge
    CONSTANT  4.14953500E-05
END PERIOD  361

BEGIN PERIOD  362
  recharge
    CONSTANT  4.27942000E-05
END PERIOD  362

BEGIN PERIOD  363
  recharge
    CONSTANT  4.41100400E-05
END PERIOD  363

BEGIN PERIOD  364
  recharge
    CONSTANT  4.54424800E-05
END PERIOD  364

BEGIN PERIOD  365
  recharge
    CONSTANT  4.67911400E-05
END PERIOD  365

BEGIN PERIOD  366
  recharge
    CONSTANT  4.81556100E-05
END PERIOD  366

BEGIN PERIOD  367
  recharge
    CONSTANT  4.95354800E-05
END PERIOD  367

BEGIN PERIOD  368
  recharge
    CONSTANT  5.09303500E-05
END PERIOD  368

BEGIN PERIOD  369
  recharge
    CONSTANT  5.23398000E-05
END PERIOD  369

BEGIN PERIOD  370
  recharge
    CONSTANT  5.37634100E-05
END PERIOD  370

BEGIN PERIOD  371
  recharge
    CONSTANT  5.52007600E-05
END PERIOD  371

BEGIN PERIOD  372
  recharge
    CONSTANT  5.66514200E-05
END PERIOD  372

BEGIN PERIOD  373
  recharge
    CONSTANT  5.81149600E-05
END PERIOD  373

BEGIN PERIOD  374
  recharge
    CONSTANT  5.95909400E-05
END PERIOD  374

BEGIN PERIOD  375
  recharge
    CONSTANT  6.10789400E-05
END PERIOD  375

BEGIN PERIOD  376
  recharge
    CONSTANT  6.25784900E-05
END PERIOD  376

BEGIN PERIOD  377
  recharge
    CONSTANT  6.40891700E-05
END PERIOD  377

BEGIN PERIOD  378
  recharge
    CONSTANT  6.56105100E-05
END PERIOD  378

BEGIN PERIOD  379
  recharge
    CONSTANT  6.71420800E-05
END PERIOD  379

BEGIN PERIOD  380
  recharge
    CONSTANT  6.86834100E-05
END PERIOD  380

BEGIN PERIOD  381
  recharge
    CONSTANT  7.02340400E-05
END PERIOD  381

BEGIN PERIOD  382
  recharge
    CONSTANT  7.17935200E-05
END PERIOD  382

BEGIN PERIOD  383
  recharge
    CONSTANT  7.33613900E-05
END PERIOD  383

BEGIN PERIOD  384
  recharge
    CONSTANT  7.49371500E-05
END PERIOD  384

BEGIN PERIOD  385
  recharge
    CONSTANT  7.65203700E-05
END PERIOD  385

BEGIN PERIOD  386
  recharge
    CONSTANT  7.81105800E-05
END PERIOD  386

BEGIN PERIOD  387
  recharge
    CONSTANT  7.97072700E-05
END PERIOD  387

BEGIN PERIOD  388
  recharge
    CONSTANT  8.13100100E-05
END PERIOD  388

BEGIN PERIOD  389
  recharge
    CONSTANT  8.29183000E-05
END PERIOD  389

BEGIN PERIOD  390
  recharge
    CONSTANT  8.45316500E-05
END PERIOD  390

BEGIN PERIOD  391
  recharge
    CONSTANT  8.61496200E-05
END PERIOD  391

BEGIN PERIOD  392
  recharge
    CONSTANT  8.77716900E-05
END PERIOD  392

BEGIN PERIOD  393
  recharge
    CONSTANT  8.93973900E-05
END PERIOD  393

BEGIN PERIOD  394
  recharge
    CONSTANT  9.10262500E-05
END PERIOD  394

BEGIN PERIOD  395
  recharge
    CONSTANT  9.26577700E-05
END PERIOD  395

BEGIN PERIOD  396
  recharge
    CONSTANT  9.42914800E-05
END PERIOD  396

BEGIN PERIOD  397
  recharge
    CONSTANT  9.59268800E-05
END PERIOD  397

BEGIN PERIOD  398
  recharge
    CONSTANT  9.75634900E-05
END PERIOD  398

BEGIN PERIOD  399
  recharge
    CONSTANT  9.92008200E-05
END PERIOD  399

BEGIN PERIOD  400
  recharge
    CONSTANT  1.00838400E-04
END PERIOD  400

BEGIN PERIOD  401
  recharge
    CONSTANT  1.02475700E-04
END PERIOD  401

BEGIN PERIOD  402
  recharge
    CONSTANT  1.04112300E-04
END PERIOD  402

BEGIN PERIOD  403
  recharge
    CONSTANT  1.05747700E-04
END PERIOD  403

BEGIN PERIOD  404