BEGIN Options
  PRINT_INPUT
  PRINT_FLOWS
  SAVE_FLOWS
END Options

BEGIN Dimensions
  MAXBOUND  6
END Dimensions

BEGIN PERIOD  1
3 29 50 -1.5000000000000000e+02
3 35 41 -1.5000000000000000e+02
3 62 44 -1.5000000000000000e+02
3 80 32 -1.5000000000000000e+02
3 89 20 -1.5000000000000000e+02
3 104 38 -1.50000000000000000e+02
END PERIOD  1

BEGIN PERIOD  2
3 29 50 -2.2412961999999999e+02
3 35 41 -2.2412961999999999e+02
3 62 44 -2.2412961999999999e+02
3 80 32 -2.2412961999999999e+02
3 89 20 -2.2412961999999999e+02
3 104 38 -2.24129619999999989e+02
END PERIOD  2

BEGIN PERIOD  3
3 29 50 -2.2202086000000000e+02
3 35 41 -2.2202086000000000e+02
3 62 44 -2.2202086000000000e+02
3 80 32 -2.2202086000000000e+02
3 89 20 -2.2202086000000000e+02
3 104 38 -2.22020859999999999e+02
END PERIOD  3

BEGIN PERIOD  4
3 29 50 -2.1989070000000001e+02
3 35 41 -2.1989070000000001e+02
3 62 44 -2.1989070000000001e+02
3 80 32 -2.1989070000000001e+02
3 89 20 -2.1989070000000001e+02
3 104 38 -2.19890700000000010e+02
END PERIOD  4

BEGIN PERIOD  5
3 29 50 -2.1773975999999999e+02
3 35 41 -2.1773975999999999e+02
3 62 44 -2.1773975999999999e+02
3 80 32 -2.1773975999999999e+02
3 89 20 -2.1773975999999999e+02
3 104 38 -2.17739759999999990e+02
END PERIOD  5

BEGIN PERIOD  6
3 29 50 -2.1556871000000001e+02
3 35 41 -2.1556871000000001e+02
3 62 44 -2.1556871000000001e+02
3 80 32 -2.1556871000000001e+02
3 89 20 -2.1556871000000001e+02
3 104 38 -2.15568710000000010e+02
END PERIOD  6

BEGIN PERIOD  7
3 29 50 -2.1337817000000001e+02
3 35 41 -2.1337817000000001e+02
3 62 44 -2.1337817000000001e+02
3 80 32 -2.1337817000000001e+02
3 89 20 -2.1337817000000001e+02
3 104 38 -2.13378170000000011e+02
END PERIOD  7

BEGIN PERIOD  8
3 29 50 -2.1116880000000000e+02
3 35 41 -2.1116880000000000e+02
3 62 44 -2.1116880000000000e+02
3 80 32 -2.1116880000000000e+02
3 89 20 -2.1116880000000000e+02
3 104 38 -2.11168800000000005e+02
END PERIOD  8

BEGIN PERIOD  9
3 29 50 -2.0894123999999999e+02
3 35 41 -2.0894123999999999e+02
3 62 44 -2.0894123999999999e+02
3 80 32 -2.0894123999999999e+02
3 89 20 -2.0894123999999999e+02
3 104 38 -2.08941239999999993e+02
END PERIOD  9

BEGIN PERIOD  10
3 29 50 -2.0669618000000000e+02
3 35 41 -2.0669618000000000e+02
3 62 44 -2.0669618000000000e+02
3 80 32 -2.0669618000000000e+02
3 89 20 -2.0669618000000000e+02
3 104 38 -2.06696179999999998e+02
END PERIOD  10

BEGIN PERIOD  11
3 29 50 -2.04434269999999998e+02
3 35 41 -2.04434269999999998e+02
3 62 44 -2.04434269999999998e+02
3 80 32 -2.04434269999999998e+02
3 89 20 -2.04434269999999998e+02
3 104 38 -2.044342699999999979e+02
END PERIOD  11

BEGIN PERIOD  12
3 29 50 -2.02156200000000013e+02
3 35 41 -2.02156200000000013e+02
3 62 44 -2.02156200000000013e+02
3 80 32 -2.02156200000000013e+02
3 89 20 -2.02156200000000013e+02
3 104 38 -2.021562000000000126e+02
END PERIOD  12

BEGIN PERIOD  13
3 29 50 -1.99862609999999989e+02
3 35 41 -1.99862609999999989e+02
3 62 44 -1.99862609999999989e+02
3 80 32 -1.99862609999999989e+02
3 89 20 -1.99862609999999989e+02
3 104 38 -1.998626099999999894e+02
END PERIOD  13

BEGIN PERIOD  14
3 29 50 -1.97554229999999990e+02
3 35 41 -1.97554229999999990e+02
3 62 44 -1.97554229999999990e+02
3 80 32 -1.97554229999999990e+02
3 89 20 -1.97554229999999990e+02
3 104 38 -1.975542299999999898e+02
END PERIOD  14

BEGIN PERIOD  15
3 29 50 -1.95231699999999989e+02
3 35 41 -1.95231699999999989e+02
3 62 44 -1.95231699999999989e+02
3 80 32 -1.95231699999999989e+02
3 89 20 -1.95231699999999989e+02
3 104 38 -1.952316999999999894e+02
END PERIOD  15

BEGIN PERIOD  16
3 29 50 -1.92895720000000011e+02
3 35 41 -1.92895720000000011e+02
3 62 44 -1.92895720000000011e+02
3 80 32 -1.92895720000000011e+02
3 89 20 -1.92895720000000011e+02
3 104 38 -1.928957200000000114e+02
END PERIOD  16

BEGIN PERIOD  17
3 29 50 -1.90547010000000000e+02
3 35 41 -1.90547010000000000e+02
3 62 44 -1.90547010000000000e+02
3 80 32 -1.90547010000000000e+02
3 89 20 -1.90547010000000000e+02
3 104 38 -1.905470100000000002e+02
END PERIOD  17

BEGIN PERIOD  18
3 29 50 -1.88186250000000001e+02
3 35 41 -1.88186250000000001e+02
3 62 44 -1.88186250000000001e+02
3 80 32 -1.88186250000000001e+02
3 89 20 -1.88186250000000001e+02
3 104 38 -1.881862500000000011e+02
END PERIOD  18

BEGIN PERIOD  19
3 29 50 -1.85814150000000012e+02
3 35 41 -1.85814150000000012e+02
3 62 44 -1.85814150000000012e+02
3 80 32 -1.85814150000000012e+02
3 89 20 -1.85814150000000012e+02
3 104 38 -1.858141500000000121e+02
END PERIOD  19

BEGIN PERIOD  20
3 29 50 -1.83431399999999996e+02
3 35 41 -1.83431399999999996e+02
3 62 44 -1.83431399999999996e+02
3 80 32 -1.83431399999999996e+02
3 89 20 -1.83431399999999996e+02
3 104 38 -1.834313999999999965e+02
END PERIOD  20

BEGIN PERIOD  21
3 29 50 -1.81038729999999987e+02
3 35 41 -1.81038729999999987e+02
3 62 44 -1.81038729999999987e+02
3 80 32 -1.81038729999999987e+02
3 89 20 -1.81038729999999987e+02
3 104 38 -1.810387299999999868e+02
END PERIOD  21

BEGIN PERIOD  22
3 29 50 -1.78636830000000003e+02
3 35 41 -1.78636830000000003e+02
3 62 44 -1.78636830000000003e+02
3 80 32 -1.78636830000000003e+02
3 89 20 -1.78636830000000003e+02
3 104 38 -1.786368300000000033e+02
END PERIOD  22

BEGIN PERIOD  23
3 29 50 -1.76226409999999987e+02
3 35 41 -1.76226409999999987e+02
3 62 44 -1.76226409999999987e+02
3 80 32 -1.76226409999999987e+02
3 89 20 -1.76226409999999987e+02
3 104 38 -1.762264099999999871e+02
END PERIOD  23

BEGIN PERIOD  24
3 29 50 -1.73808199999999999e+02
3 35 41 -1.73808199999999999e+02
3 62 44 -1.73808199999999999e+02
3 80 32 -1.73808199999999999e+02
3 89 20 -1.73808199999999999e+02
3 104 38 -1.738081999999999994e+02
END PERIOD  24

BEGIN PERIOD  25
3 29 50 -1.71382900000000006e+02
3 35 41 -1.71382900000000006e+02
3 62 44 -1.71382900000000006e+02
3 80 32 -1.71382900000000006e+02
3 89 20 -1.71382900000000006e+02
3 104 38 -1.713829000000000065e+02
END PERIOD  25

BEGIN PERIOD  26
3 29 50 -1.68951300000000003e+02
3 35 41 -1.68951300000000003e+02
3 62 44 -1.68951300000000003e+02
3 80 32 -1.68951300000000003e+02
3 89 20 -1.68951300000000003e+02
3 104 38 -1.689513000000000034e+02
END PERIOD  26

BEGIN PERIOD  27
3 29 50 -1.66514019999999988e+02
3 35 41 -1.66514019999999988e+02
3 62 44 -1.66514019999999988e+02
3 80 32 -1.66514019999999988e+02
3 89 20 -1.66514019999999988e+02
3 104 38 -1.665140199999999879e+02
END PERIOD  27

BEGIN PERIOD  28
3 29 50 -1.64071850000000012e+02
3 35 41 -1.64071850000000012e+02
3 62 44 -1.64071850000000012e+02
3 80 32 -1.64071850000000012e+02
3 89 20 -1.64071850000000012e+02
3 104 38 -1.640718500000000120e+02
END PERIOD  28

BEGIN PERIOD  29
3 29 50 -1.61625499999999988e+02
3 35 41 -1.61625499999999988e+02
3 62 44 -1.61625499999999988e+02
3 80 32 -1.61625499999999988e+02
3 89 20 -1.61625499999999988e+02
3 104 38 -1.616254999999999882e+02
END PERIOD  29

BEGIN PERIOD  30
3 29 50 -1.59175690000000003e+02
3 35 41 -1.59175690000000003e+02
3 62 44 -1.59175690000000003e+02
3 80 32 -1.59175690000000003e+02
3 89 20 -1.59175690000000003e+02
3 104 38 -1.591756900000000030e+02
END PERIOD  30

BEGIN PERIOD  31
3 29 50 -1.56723160000000007e+02
3 35 41 -1.56723160000000007e+02
3 62 44 -1.56723160000000007e+02
3 80 32 -1.56723160000000007e+02
3 89 20 -1.56723160000000007e+02
3 104 38 -1.567231600000000071e+02
END PERIOD  31

BEGIN PERIOD  32
3 29 50 -1.54268630000000002e+02
3 35 41 -1.54268630000000002e+02
3 62 44 -1.54268630000000002e+02
3 80 32 -1.54268630000000002e+02
3 89 20 -1.54268630000000002e+02
3 104 38 -1.542686300000000017e+02
END PERIOD  32

BEGIN PERIOD  33
3 29 50 -1.51812819999999988e+02
3 35 41 -1.51812819999999988e+02
3 62 44 -1.51812819999999988e+02
3 80 32 -1.51812819999999988e+02
3 89 20 -1.51812819999999988e+02
3 104 38 -1.518128199999999879e+02
END PERIOD  33

BEGIN PERIOD  34
3 29 50 -1.49356490000000008e+02
3 35 41 -1.49356490000000008e+02
3 62 44 -1.49356490000000008e+02
3 80 32 -1.49356490000000008e+02
3 89 20 -1.49356490000000008e+02
3 104 38 -1.493564900000000080e+02
END PERIOD  34

BEGIN PERIOD  35
3 29 50 -1.46900340000000000e+02
3 35 41 -1.46900340000000000e+02
3 62 44 -1.46900340000000000e+02
3 80 32 -1.46900340000000000e+02
3 89 20 -1.46900340000000000e+02
3 104 38 -1.469003399999999999e+02
END PERIOD  35

BEGIN PERIOD  36
3 29 50 -1.44445110000000000e+02
3 35 41 -1.44445110000000000e+02
3 62 44 -1.44445110000000000e+02
3 80 32 -1.44445110000000000e+02
3 89 20 -1.44445110000000000e+02
3 104 38 -1.444451099999999997e+02
END PERIOD  36

BEGIN PERIOD  37
3 29 50 -1.41991549999999989e+02
3 35 41 -1.41991549999999989e+02
3 62 44 -1.41991549999999989e+02
3 80 32 -1.41991549999999989e+02
3 89 20 -1.41991549999999989e+02
3 104 38 -1.419915499999999895e+02
END PERIOD  37

BEGIN PERIOD  38
3 29 50 -1.39540339999999986e+02
3 35 41 -1.39540339999999986e+02
3 62 44 -1.39540339999999986e+02
3 80 32 -1.39540339999999986e+02
3 89 20 -1.39540339999999986e+02
3 104 38 -1.395403399999999863e+02
END PERIOD  38

BEGIN PERIOD  39
3 29 50 -1.37092250000000007e+02
3 35 41 -1.37092250000000007e+02
3 62 44 -1.37092250000000007e+02
3 80 32 -1.37092250000000007e+02
3 89 20 -1.37092250000000007e+02
3 104 38 -1.370922500000000070e+02
END PERIOD  39

BEGIN PERIOD  40
3 29 50 -1.34647999999999996e+02
3 35 41 -1.34647999999999996e+02
3 62 44 -1.34647999999999996e+02
3 80 32 -1.34647999999999996e+02
3 89 20 -1.34647999999999996e+02
3 104 38 -1.346479999999999961e+02
END PERIOD  40

BEGIN PERIOD  41
3 29 50 -1.32208310000000012e+02
3 35 41 -1.32208310000000012e+02
3 62 44 -1.32208310000000012e+02
3 80 32 -1.32208310000000012e+02
3 89 20 -1.32208310000000012e+02
3 104 38 -1.322083100000000115e+02
END PERIOD  41

BEGIN PERIOD  42
3 29 50 -1.29773910000000001e+02
3 35 41 -1.29773910000000001e+02
3 62 44 -1.29773910000000001e+02
3 80 32 -1.29773910000000001e+02
3 89 20 -1.29773910000000001e+02
3 104 38 -1.297739100000000008e+02
END PERIOD  42

BEGIN PERIOD  43
3 29 50 -1.27345510000000004e+02
3 35 41 -1.27345510000000004e+02
3 62 44 -1.27345510000000004e+02
3 80 32 -1.27345510000000004e+02
3 89 20 -1.27345510000000004e+02
3 104 38 -1.273455100000000044e+02
END PERIOD  43

BEGIN PERIOD  44
3 29 50 -1.24923850000000002e+02
3 35 41 -1.24923850000000002e+02
3 62 44 -1.24923850000000002e+02
3 80 32 -1.24923850000000002e+02
3 89 20 -1.24923850000000002e+02
3 104 38 -1.249238500000000016e+02
END PERIOD  44

BEGIN PERIOD  45
3 29 50 -1.22509640000000005e+02
3 35 41 -1.22509640000000005e+02
3 62 44 -1.22509640000000005e+02
3 80 32 -1.22509640000000005e+02
3 89 20 -1.22509640000000005e+02
3 104 38 -1.225096400000000045e+02
END PERIOD  45

BEGIN PERIOD  46
3 29 50 -1.20103589999999997e+02
3 35 41 -1.20103589999999997e+02
3 62 44 -1.20103589999999997e+02
3 80 32 -1.20103589999999997e+02
3 89 20 -1.20103589999999997e+02
3 104 38 -1.201035899999999970e+02
END PERIOD  46

BEGIN PERIOD  47
3 29 50 -1.17706429999999997e+02
3 35 41 -1.17706429999999997e+02
3 62 44 -1.17706429999999997e+02
3 80 32 -1.17706429999999997e+02
3 89 20 -1.17706429999999997e+02
3 104 38 -1.177064299999999974e+02
END PERIOD  47

BEGIN PERIOD  48
3 29 50 -1.15318870000000004e+02
3 35 41 -1.15318870000000004e+02
3 62 44 -1.15318870000000004e+02
3 80 32 -1.15318870000000004e+02
3 89 20 -1.15318870000000004e+02
3 104 38 -1.153188700000000040e+02
END PERIOD  48

BEGIN PERIOD  49
3 29 50 -1.12941599999999994e+02
3 35 41 -1.12941599999999994e+02
3 62 44 -1.12941599999999994e+02
3 80 32 -1.12941599999999994e+02
3 89 20 -1.12941599999999994e+02
3 104 38 -1.129415999999999940e+02
END PERIOD  49

BEGIN PERIOD  50
3 29 50 -1.10575360000000003e+02
3 35 41 -1.10575360000000003e+02
3 62 44 -1.10575360000000003e+02
3 80 32 -1.10575360000000003e+02
3 89 20 -1.10575360000000003e+02
3 104 38 -1.105753600000000034e+02
END PERIOD  50

BEGIN PERIOD  51
3 29 50 -1.08220830000000007e+02
3 35 41 -1.08220830000000007e+02
3 62 44 -1.08220830000000007e+02
3 80 32 -1.08220830000000007e+02
3 89 20 -1.08220830000000007e+02
3 104 38 -1.082208300000000065e+02
END PERIOD  51

BEGIN PERIOD  52
3 29 50 -1.05878709999999998e+02
3 35 41 -1.05878709999999998e+02
3 62 44 -1.05878709999999998e+02
3 80 32 -1.05878709999999998e+02
3 89 20 -1.05878709999999998e+02
3 104 38 -1.058787099999999981e+02
END PERIOD  52

BEGIN PERIOD  53
3 29 50 -1.03549689999999998e+02
3 35 41 -1.03549689999999998e+02
3 62 44 -1.03549689999999998e+02
3 80 32 -1.03549689999999998e+02
3 89 20 -1.03549689999999998e+02
3 104 38 -1.035496899999999982e+02
END PERIOD  53

BEGIN PERIOD  54
3 29 50 -1.01234489999999994e+02
3 35 41 -1.01234489999999994e+02
3 62 44 -1.01234489999999994e+02
3 80 32 -1.01234489999999994e+02
3 89 20 -1.01234489999999994e+02
3 104 38 -1.012344899999999939e+02
END PERIOD  54

BEGIN PERIOD  55
3 29 50 -98.93376999999999554802
3 35 41 -98.93376999999999554802
3 62 44 -98.93376999999999554802
3 80 32 -98.93376999999999554802
3 89 20 -98.93376999999999554802
3 104 38 -98.933769999999995548023
END PERIOD  55

BEGIN PERIOD  56
3 29 50 -96.64822399999999902320
3 35 41 -96.64822399999999902320
3 62 44 -96.64822399999999902320
3 80 32 -96.64822399999999902320
3 89 20 -96.64822399999999902320
3 104 38 -96.648223999999999023203
END PERIOD  56

BEGIN PERIOD  57
3 29 50 -94.37852999999999781267
3 35 41 -94.37852999999999781267
3 62 44 -94.37852999999999781267
3 80 32 -94.37852999999999781267
3 89 20 -94.37852999999999781267
3 104 38 -94.378529999999997812665
END PERIOD  57

BEGIN PERIOD  58
3 29 50 -92.12537000000000375621
3 35 41 -92.12537000000000375621
3 62 44 -92.12537000000000375621
3 80 32 -92.12537000000000375621
3 89 20 -92.12537000000000375621
3 104 38 -92.125370000000003756213
END PERIOD  58

BEGIN PERIOD  59
3 29 50 -89.88939999999999486135
3 35 41 -89.88939999999999486135
3 62 44 -89.88939999999999486135
3 80 32 -89.88939999999999486135
3 89 20 -89.88939999999999486135
3 104 38 -89.889399999999994861355
END PERIOD  59

BEGIN PERIOD  60
3 29 50 -87.67129500000000064119
3 35 41 -87.67129500000000064119
3 62 44 -87.67129500000000064119
3 80 32 -87.67129500000000064119
3 89 20 -87.67129500000000064119
3 104 38 -87.671295000000000641194
END PERIOD  60

BEGIN PERIOD  61
3 29 50 -85.47169999999999845386
3 35 41 -85.47169999999999845386
3 62 44 -85.47169999999999845386
3 80 32 -85.47169999999999845386
3 89 20 -85.47169999999999845386
3 104 38 -85.471699999999998453859
END PERIOD  61

BEGIN PERIOD  62
3 29 50 -83.29129000000000360160
3 35 41 -83.29129000000000360160
3 62 44 -83.29129000000000360160
3 80 32 -83.29129000000000360160
3 89 20 -83.29129000000000360160
3 104 38 -83.291290000000003601599
END PERIOD  62

BEGIN PERIOD  63
3 29 50 -81.13070000000000447926
3 35 41 -81.13070000000000447926
3 62 44 -81.13070000000000447926
3 80 32 -81.13070000000000447926
3 89 20 -81.13070000000000447926
3 104 38 -81.130700000000004479261
END PERIOD  63

BEGIN PERIOD  64
3 29 50 -78.99057000000000527962
3 35 41 -78.99057000000000527962
3 62 44 -78.99057000000000527962
3 80 32 -78.99057000000000527962
3 89 20 -78.99057000000000527962
3 104 38 -78.990570000000005279617
END PERIOD  64

BEGIN PERIOD  65
3 29 50 -76.87153999999999598458
3 35 41 -76.87153999999999598458
3 62 44 -76.87153999999999598458
3 80 32 -76.87153999999999598458
3 89 20 -76.87153999999999598458
3 104 38 -76.871539999999995984581
END PERIOD  65

BEGIN PERIOD  66
3 29 50 -74.77424000000000603450
3 35 41 -74.77424000000000603450
3 62 44 -74.77424000000000603450
3 80 32 -74.77424000000000603450
3 89 20 -74.77424000000000603450
3 104 38 -74.774240000000006034497
END PERIOD  66

BEGIN PERIOD  67
3 29 50 -72.69929000000000485215
3 35 41 -72.69929000000000485215
3 62 44 -72.69929000000000485215
3 80 32 -72.69929000000000485215
3 89 20 -72.69929000000000485215
3 104 38 -72.699290000000004852154
END PERIOD  67

BEGIN PERIOD  68
3 29 50 -70.64731000000000449290
3 35 41 -70.64731000000000449290
3 62 44 -70.64731000000000449290
3 80 32 -70.64731000000000449290
3 89 20 -70.64731000000000449290
3 104 38 -70.647310000000004492904
END PERIOD  68

BEGIN PERIOD  69
3 29 50 -68.61890999999999962711
3 35 41 -68.61890999999999962711
3 62 44 -68.61890999999999962711
3 80 32 -68.61890999999999962711
3 89 20 -68.61890999999999962711
3 104 38 -68.618909999999999627107
END PERIOD  69

BEGIN PERIOD  70
3 29 50 -66.61468999999999596184
3 35 41 -66.61468999999999596184
3 62 44 -66.61468999999999596184
3 80 32 -66.61468999999999596184
3 89 20 -66.61468999999999596184
3 104 38 -66.614689999999995961844
END PERIOD  70

BEGIN PERIOD  71
3 29 50 -64.63524999999999920419
3 35 41 -64.63524999999999920419
3 62 44 -64.63524999999999920419
3 80 32 -64.63524999999999920419
3 89 20 -64.63524999999999920419
3 104 38 -64.635249999999999204192
END PERIOD  71

BEGIN PERIOD  72
3 29 50 -62.68117000000000160753
3 35 41 -62.68117000000000160753
3 62 44 -62.68117000000000160753
3 80 32 -62.68117000000000160753
3 89 20 -62.68117000000000160753
3 104 38 -62.681170000000001607532
END PERIOD  72

BEGIN PERIOD  73
3 29 50 -60.75303999999999859938
3 35 41 -60.75303999999999859938
3 62 44 -60.75303999999999859938
3 80 32 -60.75303999999999859938
3 89 20 -60.75303999999999859938
3 104 38 -60.753039999999998599378
END PERIOD  73

BEGIN PERIOD  74
3 29 50 -58.85142499999999898819
3 35 41 -58.85142499999999898819
3 62 44 -58.85142499999999898819
3 80 32 -58.85142499999999898819
3 89 20 -58.85142499999999898819
3 104 38 -58.851424999999998988187
END PERIOD  74

BEGIN PERIOD  75
3 29 50 -56.97688999999999737156
3 35 41 -56.97688999999999737156
3 62 44 -56.97688999999999737156
3 80 32 -56.97688999999999737156
3 89 20 -56.97688999999999737156
3 104 38 -56.976889999999997371560
END PERIOD  75

BEGIN PERIOD  76
3 29 50 -55.13000499999999703959
3 35 41 -55.13000499999999703959
3 62 44 -55.13000499999999703959
3 80 32 -55.13000499999999703959
3 89 20 -55.13000499999999703959
3 104 38 -55.130004999999997039595
END PERIOD  76

BEGIN PERIOD  77
3 29 50 -53.31130600000000185901
3 35 41 -53.31130600000000185901
3 62 44 -53.31130600000000185901
3 80 32 -53.31130600000000185901
3 89 20 -53.31130600000000185901
3 104 38 -53.311306000000001859007
END PERIOD  77

BEGIN PERIOD  78
3 29 50 -51.52132999999999896090
3 35 41 -51.52132999999999896090
3 62 44 -51.52132999999999896090
3 80 32 -51.52132999999999896090
3 89 20 -51.52132999999999896090
3 104 38 -51.521329999999998960902
END PERIOD  78

BEGIN PERIOD  79
3 29 50 -49.76062399999999996680
3 35 41 -49.76062399999999996680
3 62 44 -49.76062399999999996680
3 80 32 -49.76062399999999996680
3 89 20 -49.76062399999999996680
3 104 38 -49.760623999999999966803
END PERIOD  79

BEGIN PERIOD  80
3 29 50 -48.02969399999999922102
3 35 41 -48.02969399999999922102
3 62 44 -48.02969399999999922102
3 80 32 -48.02969399999999922102
3 89 20 -48.02969399999999922102
3 104 38 -48.029693999999999221018
END PERIOD  80

BEGIN PERIOD  81
3 29 50 -46.32906700000000199680
3 35 41 -46.32906700000000199680
3 62 44 -46.32906700000000199680
3 80 32 -46.32906700000000199680
3 89 20 -46.32906700000000199680
3 104 38 -46.329067000000001996796
END PERIOD  81

BEGIN PERIOD  82
3 29 50 -44.65924499999999852662
3 35 41 -44.65924499999999852662
3 62 44 -44.65924499999999852662
3 80 32 -44.65924499999999852662
3 89 20 -44.65924499999999852662
3 104 38 -44.659244999999998526619
END PERIOD  82

BEGIN PERIOD  83
3 29 50 -43.02072499999999877218
3 35 41 -43.02072499999999877218
3 62 44 -43.02072499999999877218
3 80 32 -43.02072499999999877218
3 89 20 -43.02072499999999877218
3 104 38 -43.020724999999998772182
END PERIOD  83

BEGIN PERIOD  84
3 29 50 -41.41398999999999830379
3 35 41 -41.41398999999999830379
3 62 44 -41.41398999999999830379
3 80 32 -41.41398999999999830379
3 89 20 -41.41398999999999830379
3 104 38 -41.413989999999998303792
END PERIOD  84

BEGIN PERIOD  85
3 29 50 -39.83952000000000026603
3 35 41 -39.83952000000000026603
3 62 44 -39.83952000000000026603
3 80 32 -39.83952000000000026603
3 89 20 -39.83952000000000026603
3 104 38 -39.839520000000000266027
END PERIOD  85

BEGIN PERIOD  86
3 29 50 -38.29778300000000257342
3 35 41 -38.29778300000000257342
3 62 44 -38.29778300000000257342
3 80 32 -38.29778300000000257342
3 89 20 -38.29778300000000257342
3 104 38 -38.297783000000002573415
END PERIOD  86

BEGIN PERIOD  87
3 29 50 -36.78923799999999744159
3 35 41 -36.78923799999999744159
3 62 44 -36.78923799999999744159
3 80 32 -36.78923799999999744159
3 89 20 -36.78923799999999744159
3 104 38 -36.789237999999997441591
END PERIOD  87

BEGIN PERIOD  88
3 29 50 -35.31432999999999822194
3 35 41 -35.31432999999999822194
3 62 44 -35.31432999999999822194
3 80 32 -35.31432999999999822194
3 89 20 -35.31432999999999822194
3 104 38 -35.314329999999998221938
END PERIOD  88

BEGIN PERIOD  89
3 29 50 -33.87349999999999994316
3 35 41 -33.87349999999999994316
3 62 44 -33.87349999999999994316
3 80 32 -33.87349999999999994316
3 89 20 -33.87349999999999994316
3 104 38 -33.873499999999999943157
END PERIOD  89

BEGIN PERIOD  90
3 29 50 -32.46717499999999745341
3 35 41 -32.46717499999999745341
3 62 44 -32.46717499999999745341
3 80 32 -32.46717499999999745341
3 89 20 -32.46717499999999745341
3 104 38 -32.467174999999997453415
END PERIOD  90

BEGIN PERIOD  91
3 29 50 -31.09577200000000019031
3 35 41 -31.09577200000000019031
3 62 44 -31.09577200000000019031
3 80 32 -31.09577200000000019031
3 89 20 -31.09577200000000019031
3 104 38 -31.095772000000000190312
END PERIOD  91

BEGIN PERIOD  92
3 29 50 -29.75969999999999870965
3 35 41 -29.75969999999999870965
3 62 44 -29.75969999999999870965
3 80 32 -29.75969999999999870965
3 89 20 -29.75969999999999870965
3 104 38 -29.759699999999998709654
END PERIOD  92

BEGIN PERIOD  93
3 29 50 -28.45935800000000170940
3 35 41 -28.45935800000000170940
3 62 44 -28.45935800000000170940
3 80 32 -28.45935800000000170940
3 89 20 -28.45935800000000170940
3 104 38 -28.459358000000001709395
END PERIOD  93

BEGIN PERIOD  94
3 29 50 -27.19512699999999938427
3 35 41 -27.19512699999999938427
3 62 44 -27.19512699999999938427
3 80 32 -27.19512699999999938427
3 89 20 -27.19512699999999938427
3 104 38 -27.195126999999999384272
END PERIOD  94

BEGIN PERIOD  95
3 29 50 -25.96738600000000118939
3 35 41 -25.96738600000000118939
3 62 44 -25.96738600000000118939
3 80 32 -25.96738600000000118939
3 89 20 -25.96738600000000118939
3 104 38 -25.967386000000001189392
END PERIOD  95

BEGIN PERIOD  96
3 29 50 -24.77649999999999863576
3 35 41 -24.77649999999999863576
3 62 44 -24.77649999999999863576
3 80 32 -24.77649999999999863576
3 89 20 -24.77649999999999863576
3 104 38 -24.776499999999998635758
END PERIOD  96

BEGIN PERIOD  97
3 29 50 -23.62282199999999932061
3 35 41 -23.62282199999999932061
3 62 44 -23.62282199999999932061
3 80 32 -23.62282199999999932061
3 89 20 -23.62282199999999932061
3 104 38 -23.622821999999999320607
END PERIOD  97

BEGIN PERIOD  98
3 29 50 -22.50669699999999906481
3 35 41 -22.50669699999999906481
3 62 44 -22.50669699999999906481
3 80 32 -22.50669699999999906481
3 89 20 -22.50669699999999906481
3 104 38 -22.506696999999999064812
END PERIOD  98

BEGIN PERIOD  99
3 29 50 -21.42845300000000108298
3 35 41 -21.42845300000000108298
3 62 44 -21.42845300000000108298
3 80 32 -21.42845300000000108298
3 89 20 -21.42845300000000108298
3 104 38 -21.428453000000001082981
END PERIOD  99

BEGIN PERIOD  100
3 29 50 -20.38841400000000092518
3 35 41 -20.38841400000000092518
3 62 44 -20.38841400000000092518
3 80 32 -20.38841400000000092518
3 89 20 -20.38841400000000092518
3 104 38 -20.388414000000000925183
END PERIOD  100

BEGIN PERIOD  101
3 29 50 -19.386884999999999479314
3 35 41 -19.386884999999999479314
3 62 44 -19.386884999999999479314
3 80 32 -19.386884999999999479314
3 89 20 -19.386884999999999479314
3 104 38 -19.3868849999999994793143
END PERIOD  101

BEGIN PERIOD  102
3 29 50 -18.424165999999999598913
3 35 41 -18.424165999999999598913
3 62 44 -18.424165999999999598913
3 80 32 -18.424165999999999598913
3 89 20 -18.424165999999999598913
3 104 38 -18.4241659999999995989128
END PERIOD  102

BEGIN PERIOD  103
3 29 50 -17.500544000000001432227
3 35 41 -17.500544000000001432227
3 62 44 -17.500544000000001432227
3 80 32 -17.500544000000001432227
3 89 20 -17.500544000000001432227
3 104 38 -17.5005440000000014322268
END PERIOD  103

BEGIN PERIOD  104
3 29 50 -16.616291000000000366299
3 35 41 -16.616291000000000366299
3 62 44 -16.616291000000000366299
3 80 32 -16.616291000000000366299
3 89 20 -16.616291000000000366299
3 104 38 -16.6162910000000003662990
END PERIOD  104

BEGIN PERIOD  105
3 29 50 -15.771670000000000300133
3 35 41 -15.771670000000000300133
3 62 44 -15.771670000000000300133
3 80 32 -15.771670000000000300133
3 89 20 -15.771670000000000300133
3 104 38 -15.7716700000000003001333
END PERIOD  105

BEGIN PERIOD  106
3 29 50 -14.966934999999999433840
3 35 41 -14.966934999999999433840
3 62 44 -14.966934999999999433840
3 80 32 -14.966934999999999433840
3 89 20 -14.966934999999999433840
3 104 38 -14.9669349999999994338395
END PERIOD  106

BEGIN PERIOD  107
3 29 50 -14.202322000000000556952
3 35 41 -14.202322000000000556952
3 62 44 -14.202322000000000556952
3 80 32 -14.202322000000000556952
3 89 20 -14.202322000000000556952
3 104 38 -14.2023220000000005569518
END PERIOD  107

BEGIN PERIOD  108
3 29 50 -13.478059999999999263309
3 35 41 -13.478059999999999263309
3 62 44 -13.478059999999999263309
3 80 32 -13.478059999999999263309
3 89 20 -13.478059999999999263309
3 104 38 -13.4780599999999992633093
END PERIOD  108

BEGIN PERIOD  109
3 29 50 -12.794363000000000596401
3 35 41 -12.794363000000000596401
3 62 44 -12.794363000000000596401
3 80 32 -12.794363000000000596401
3 89 20 -12.794363000000000596401
3 104 38 -12.7943630000000005964012
END PERIOD  109

BEGIN PERIOD  110
3 29 50 -12.151434000000000068553
3 35 41 -12.151434000000000068553
3 62 44 -12.151434000000000068553
3 80 32 -12.151434000000000068553
3 89 20 -12.151434000000000068553
3 104 38 -12.1514340000000000685532
END PERIOD  110

BEGIN PERIOD  111
3 29 50 -11.549466000000000676096
3 35 41 -11.549466000000000676096
3 62 44 -11.549466000000000676096
3 80 32 -11.549466000000000676096
3 89 20 -11.549466000000000676096
3 104 38 -11.5494660000000006760956
END PERIOD  111

BEGIN PERIOD  112
3 29 50 -10.988635999999999626198
3 35 41 -10.988635999999999626198
3 62 44 -10.988635999999999626198
3 80 32 -10.988635999999999626198
3 89 20 -10.988635999999999626198
3 104 38 -10.9886359999999996261977
END PERIOD  112

BEGIN PERIOD  113
3 29 50 -10.469110000000000582077
3 35 41 -10.469110000000000582077
3 62 44 -10.469110000000000582077
3 80 32 -10.469110000000000582077
3 89 20 -10.469110000000000582077
3 104 38 -10.4691100000000005820766
END PERIOD  113

BEGIN PERIOD  114
3 29 50 -9.9910449999999997316991
3 35 41 -9.9910449999999997316991
3 62 44 -9.9910449999999997316991
3 80 32 -9.9910449999999997316991
3 89 20 -9.9910449999999997316991
3 104 38 -9.99104499999999973169906
END PERIOD  114

BEGIN PERIOD  115
3 29 50 -9.5545810000000006567689
3 35 41 -9.5545810000000006567689
3 62 44 -9.5545810000000006567689
3 80 32 -9.5545810000000006567689
3 89 20 -9.5545810000000006567689
3 104 38 -9.55458100000000065676886
END PERIOD  115

BEGIN PERIOD  116
3 29 50 -9.1598480000000002121396
3 35 41 -9.1598480000000002121396
3 62 44 -9.1598480000000002121396
3 80 32 -9.1598480000000002121396
3 89 20 -9.1598480000000002121396
3 104 38 -9.15984800000000021213964
END PERIOD  116

BEGIN PERIOD  117
3 29 50 -8.8069640000000006807568
3 35 41 -8.8069640000000006807568
3 62 44 -8.8069640000000006807568
3 80 32 -8.8069640000000006807568
3 89 20 -8.8069640000000006807568
3 104 38 -8.80696400000000068075678
END PERIOD  117

BEGIN PERIOD  118
3 29 50 -8.4960339999999998639169
3 35 41 -8.4960339999999998639169
3 62 44 -8.4960339999999998639169
3 80 32 -8.4960339999999998639169
3 89 20 -8.4960339999999998639169
3 104 38 -8.49603399999999986391686
END PERIOD  118

BEGIN PERIOD  119
3 29 50 -8.2271490000000007114522
3 35 41 -8.2271490000000007114522
3 62 44 -8.2271490000000007114522
3 80 32 -8.2271490000000007114522
3 89 20 -8.2271490000000007114522
3 104 38 -8.22714900000000071145223
END PERIOD  119

BEGIN PERIOD  120
3 29 50 -8.0003890000000001947456
3 35 41 -8.0003890000000001947456
3 62 44 -8.0003890000000001947456
3 80 32 -8.0003890000000001947456
3 89 20 -8.0003890000000001947456
3 104 38 -8.00038900000000019474555
END PERIOD  120

BEGIN PERIOD  121
3 29 50 -7.8158229999999999648708
3 35 41 -7.8158229999999999648708
3 62 44 -7.8158229999999999648708
3 80 32 -7.8158229999999999648708
3 89 20 -7.8158229999999999648708
3 104 38 -7.81582299999999996487077
END PERIOD  121

BEGIN PERIOD  122
3 29 50 -7.6735043999999996700012
3 35 41 -7.6735043999999996700012
3 62 44 -7.6735043999999996700012
3 80 32 -7.6735043999999996700012
3 89 20 -7.6735043999999996700012
3 104 38 -7.67350439999999967000122
END PERIOD  122

BEGIN PERIOD  123
3 29 50 -7.5734763000000002719503
3 35 41 -7.5734763000000002719503
3 62 44 -7.5734763000000002719503
3 80 32 -7.5734763000000002719503
3 89 20 -7.5734763000000002719503
3 104 38 -7.57347630000000027195028
END PERIOD  123

BEGIN PERIOD  124
3 29 50 -7.5157679999999995601456
3 35 41 -7.5157679999999995601456
3 62 44 -7.5157679999999995601456
3 80 32 -7.5157679999999995601456
3 89 20 -7.5157679999999995601456
3 104 38 -7.51576799999999956014562
END PERIOD  124

BEGIN PERIOD  125
3 29 50 -7.5003970000000004247909
3 35 41 -7.5003970000000004247909
3 62 44 -7.5003970000000004247909
3 80 32 -7.5003970000000004247909
3 89 20 -7.5003970000000004247909
3 104 38 -7.50039700000000042479087
END PERIOD  125

BEGIN PERIOD  126
3 29 50 -7.5273675999999998253998
3 35 41 -7.5273675999999998253998
3 62 44 -7.5273675999999998253998
3 80 32 -7.5273675999999998253998
3 89 20 -7.5273675999999998253998
3 104 38 -7.52736759999999982539975
END PERIOD  126

BEGIN PERIOD  127
3 29 50 -7.5966719999999998691464
3 35 41 -7.5966719999999998691464
3 62 44 -7.5966719999999998691464
3 80 32 -7.5966719999999998691464
3 89 20 -7.5966719999999998691464
3 104 38 -7.59667199999999986914645
END PERIOD  127

BEGIN PERIOD  128
3 29 50 -7.7082886999999997712507
3 35 41 -7.7082886999999997712507
3 62 44 -7.7082886999999997712507
3 80 32 -7.7082886999999997712507