ptf ~
BEGIN Options
  PRINT_INPUT
  PRINT_FLOWS
  SAVE_FLOWS
END Options

BEGIN Dimensions
  MAXBOUND  6
END Dimensions

BEGIN PERIOD  1
3 29 50 ~  welflx_2_28_49_0   ~
3 35 41 ~  welflx_2_34_40_0   ~
3 62 44 ~  welflx_2_61_43_0   ~
3 80 32 ~  welflx_2_79_31_0   ~
3 89 20 ~  welflx_2_88_19_0   ~
3 104 38 ~  welflx_2_103_37_0   ~
END PERIOD  1

BEGIN PERIOD  2
3 29 50 ~  welflx_2_28_49_1   ~
3 35 41 ~  welflx_2_34_40_1   ~
3 62 44 ~  welflx_2_61_43_1   ~
3 80 32 ~  welflx_2_79_31_1   ~
3 89 20 ~  welflx_2_88_19_1   ~
3 104 38 ~  welflx_2_103_37_1   ~
END PERIOD  2

BEGIN PERIOD  3
3 29 50 ~  welflx_2_28_49_2   ~
3 35 41 ~  welflx_2_34_40_2   ~
3 62 44 ~  welflx_2_61_43_2   ~
3 80 32 ~  welflx_2_79_31_2   ~
3 89 20 ~  welflx_2_88_19_2   ~
3 104 38 ~  welflx_2_103_37_2   ~
END PERIOD  3

BEGIN PERIOD  4
3 29 50 ~  welflx_2_28_49_3   ~
3 35 41 ~  welflx_2_34_40_3   ~
3 62 44 ~  welflx_2_61_43_3   ~
3 80 32 ~  welflx_2_79_31_3   ~
3 89 20 ~  welflx_2_88_19_3   ~
3 104 38 ~  welflx_2_103_37_3   ~
END PERIOD  4

BEGIN PERIOD  5
3 29 50 ~  welflx_2_28_49_4   ~
3 35 41 ~  welflx_2_34_40_4   ~
3 62 44 ~  welflx_2_61_43_4   ~
3 80 32 ~  welflx_2_79_31_4   ~
3 89 20 ~  welflx_2_88_19_4   ~
3 104 38 ~  welflx_2_103_37_4   ~
END PERIOD  5

BEGIN PERIOD  6
3 29 50 ~  welflx_2_28_49_5   ~
3 35 41 ~  welflx_2_34_40_5   ~
3 62 44 ~  welflx_2_61_43_5   ~
3 80 32 ~  welflx_2_79_31_5   ~
3 89 20 ~  welflx_2_88_19_5   ~
3 104 38 ~  welflx_2_103_37_5   ~
END PERIOD  6

BEGIN PERIOD  7
3 29 50 ~  welflx_2_28_49_6   ~
3 35 41 ~  welflx_2_34_40_6   ~
3 62 44 ~  welflx_2_61_43_6   ~
3 80 32 ~  welflx_2_79_31_6   ~
3 89 20 ~  welflx_2_88_19_6   ~
3 104 38 ~  welflx_2_103_37_6   ~
END PERIOD  7

BEGIN PERIOD  8
3 29 50 ~  welflx_2_28_49_7   ~
3 35 41 ~  welflx_2_34_40_7   ~
3 62 44 ~  welflx_2_61_43_7   ~
3 80 32 ~  welflx_2_79_31_7   ~
3 89 20 ~  welflx_2_88_19_7   ~
3 104 38 ~  welflx_2_103_37_7   ~
END PERIOD  8

BEGIN PERIOD  9
3 29 50 ~  welflx_2_28_49_8   ~
3 35 41 ~  welflx_2_34_40_8   ~
3 62 44 ~  welflx_2_61_43_8   ~
3 80 32 ~  welflx_2_79_31_8   ~
3 89 20 ~  welflx_2_88_19_8   ~
3 104 38 ~  welflx_2_103_37_8   ~
END PERIOD  9

BEGIN PERIOD  10
3 29 50 ~  welflx_2_28_49_9   ~
3 35 41 ~  welflx_2_34_40_9   ~
3 62 44 ~  welflx_2_61_43_9   ~
3 80 32 ~  welflx_2_79_31_9   ~
3 89 20 ~  welflx_2_88_19_9   ~
3 104 38 ~  welflx_2_103_37_9   ~
END PERIOD  10

BEGIN PERIOD  11
3 29 50 ~  welflx_2_28_49_10   ~
3 35 41 ~  welflx_2_34_40_10   ~
3 62 44 ~  welflx_2_61_43_10   ~
3 80 32 ~  welflx_2_79_31_10   ~
3 89 20 ~  welflx_2_88_19_10   ~
3 104 38 ~  welflx_2_103_37_10   ~
END PERIOD  11

BEGIN PERIOD  12
3 29 50 ~  welflx_2_28_49_11   ~
3 35 41 ~  welflx_2_34_40_11   ~
3 62 44 ~  welflx_2_61_43_11   ~
3 80 32 ~  welflx_2_79_31_11   ~
3 89 20 ~  welflx_2_88_19_11   ~
3 104 38 ~  welflx_2_103_37_11   ~
END PERIOD  12

BEGIN PERIOD  13
3 29 50 ~  welflx_2_28_49_12   ~
3 35 41 ~  welflx_2_34_40_12   ~
3 62 44 ~  welflx_2_61_43_12   ~
3 80 32 ~  welflx_2_79_31_12   ~
3 89 20 ~  welflx_2_88_19_12   ~
3 104 38 ~  welflx_2_103_37_12   ~
END PERIOD  13

BEGIN PERIOD  14
3 29 50 ~  welflx_2_28_49_13   ~
3 35 41 ~  welflx_2_34_40_13   ~
3 62 44 ~  welflx_2_61_43_13   ~
3 80 32 ~  welflx_2_79_31_13   ~
3 89 20 ~  welflx_2_88_19_13   ~
3 104 38 ~  welflx_2_103_37_13   ~
END PERIOD  14

BEGIN PERIOD  15
3 29 50 ~  welflx_2_28_49_14   ~
3 35 41 ~  welflx_2_34_40_14   ~
3 62 44 ~  welflx_2_61_43_14   ~
3 80 32 ~  welflx_2_79_31_14   ~
3 89 20 ~  welflx_2_88_19_14   ~
3 104 38 ~  welflx_2_103_37_14   ~
END PERIOD  15

BEGIN PERIOD  16
3 29 50 ~  welflx_2_28_49_15   ~
3 35 41 ~  welflx_2_34_40_15   ~
3 62 44 ~  welflx_2_61_43_15   ~
3 80 32 ~  welflx_2_79_31_15   ~
3 89 20 ~  welflx_2_88_19_15   ~
3 104 38 ~  welflx_2_103_37_15   ~
END PERIOD  16

BEGIN PERIOD  17
3 29 50 ~  welflx_2_28_49_16   ~
3 35 41 ~  welflx_2_34_40_16   ~
3 62 44 ~  welflx_2_61_43_16   ~
3 80 32 ~  welflx_2_79_31_16   ~
3 89 20 ~  welflx_2_88_19_16   ~
3 104 38 ~  welflx_2_103_37_16   ~
END PERIOD  17

BEGIN PERIOD  18
3 29 50 ~  welflx_2_28_49_17   ~
3 35 41 ~  welflx_2_34_40_17   ~
3 62 44 ~  welflx_2_61_43_17   ~
3 80 32 ~  welflx_2_79_31_17   ~
3 89 20 ~  welflx_2_88_19_17   ~
3 104 38 ~  welflx_2_103_37_17   ~
END PERIOD  18

BEGIN PERIOD  19
3 29 50 ~  welflx_2_28_49_18   ~
3 35 41 ~  welflx_2_34_40_18   ~
3 62 44 ~  welflx_2_61_43_18   ~
3 80 32 ~  welflx_2_79_31_18   ~
3 89 20 ~  welflx_2_88_19_18   ~
3 104 38 ~  welflx_2_103_37_18   ~
END PERIOD  19

BEGIN PERIOD  20
3 29 50 ~  welflx_2_28_49_19   ~
3 35 41 ~  welflx_2_34_40_19   ~
3 62 44 ~  welflx_2_61_43_19   ~
3 80 32 ~  welflx_2_79_31_19   ~
3 89 20 ~  welflx_2_88_19_19   ~
3 104 38 ~  welflx_2_103_37_19   ~
END PERIOD  20

BEGIN PERIOD  21
3 29 50 ~  welflx_2_28_49_20   ~
3 35 41 ~  welflx_2_34_40_20   ~
3 62 44 ~  welflx_2_61_43_20   ~
3 80 32 ~  welflx_2_79_31_20   ~
3 89 20 ~  welflx_2_88_19_20   ~
3 104 38 ~  welflx_2_103_37_20   ~
END PERIOD  21

BEGIN PERIOD  22
3 29 50 ~  welflx_2_28_49_21   ~
3 35 41 ~  welflx_2_34_40_21   ~
3 62 44 ~  welflx_2_61_43_21   ~
3 80 32 ~  welflx_2_79_31_21   ~
3 89 20 ~  welflx_2_88_19_21   ~
3 104 38 ~  welflx_2_103_37_21   ~
END PERIOD  22

BEGIN PERIOD  23
3 29 50 ~  welflx_2_28_49_22   ~
3 35 41 ~  welflx_2_34_40_22   ~
3 62 44 ~  welflx_2_61_43_22   ~
3 80 32 ~  welflx_2_79_31_22   ~
3 89 20 ~  welflx_2_88_19_22   ~
3 104 38 ~  welflx_2_103_37_22   ~
END PERIOD  23

BEGIN PERIOD  24
3 29 50 ~  welflx_2_28_49_23   ~
3 35 41 ~  welflx_2_34_40_23   ~
3 62 44 ~  welflx_2_61_43_23   ~
3 80 32 ~  welflx_2_79_31_23   ~
3 89 20 ~  welflx_2_88_19_23   ~
3 104 38 ~  welflx_2_103_37_23   ~
END PERIOD  24

BEGIN PERIOD  25
3 29 50 ~  welflx_2_28_49_24   ~
3 35 41 ~  welflx_2_34_40_24   ~
3 62 44 ~  welflx_2_61_43_24   ~
3 80 32 ~  welflx_2_79_31_24   ~
3 89 20 ~  welflx_2_88_19_24   ~
3 104 38 ~  welflx_2_103_37_24   ~
END PERIOD  25

BEGIN PERIOD  26
3 29 50 ~  welflx_2_28_49_25   ~
3 35 41 ~  welflx_2_34_40_25   ~
3 62 44 ~  welflx_2_61_43_25   ~
3 80 32 ~  welflx_2_79_31_25   ~
3 89 20 ~  welflx_2_88_19_25   ~
3 104 38 ~  welflx_2_103_37_25   ~
END PERIOD  26

BEGIN PERIOD  27
3 29 50 ~  welflx_2_28_49_26   ~
3 35 41 ~  welflx_2_34_40_26   ~
3 62 44 ~  welflx_2_61_43_26   ~
3 80 32 ~  welflx_2_79_31_26   ~
3 89 20 ~  welflx_2_88_19_26   ~
3 104 38 ~  welflx_2_103_37_26   ~
END PERIOD  27

BEGIN PERIOD  28
3 29 50 ~  welflx_2_28_49_27   ~
3 35 41 ~  welflx_2_34_40_27   ~
3 62 44 ~  welflx_2_61_43_27   ~
3 80 32 ~  welflx_2_79_31_27   ~
3 89 20 ~  welflx_2_88_19_27   ~
3 104 38 ~  welflx_2_103_37_27   ~
END PERIOD  28

BEGIN PERIOD  29
3 29 50 ~  welflx_2_28_49_28   ~
3 35 41 ~  welflx_2_34_40_28   ~
3 62 44 ~  welflx_2_61_43_28   ~
3 80 32 ~  welflx_2_79_31_28   ~
3 89 20 ~  welflx_2_88_19_28   ~
3 104 38 ~  welflx_2_103_37_28   ~
END PERIOD  29

BEGIN PERIOD  30
3 29 50 ~  welflx_2_28_49_29   ~
3 35 41 ~  welflx_2_34_40_29   ~
3 62 44 ~  welflx_2_61_43_29   ~
3 80 32 ~  welflx_2_79_31_29   ~
3 89 20 ~  welflx_2_88_19_29   ~
3 104 38 ~  welflx_2_103_37_29   ~
END PERIOD  30

BEGIN PERIOD  31
3 29 50 ~  welflx_2_28_49_30   ~
3 35 41 ~  welflx_2_34_40_30   ~
3 62 44 ~  welflx_2_61_43_30   ~
3 80 32 ~  welflx_2_79_31_30   ~
3 89 20 ~  welflx_2_88_19_30   ~
3 104 38 ~  welflx_2_103_37_30   ~
END PERIOD  31

BEGIN PERIOD  32
3 29 50 ~  welflx_2_28_49_31   ~
3 35 41 ~  welflx_2_34_40_31   ~
3 62 44 ~  welflx_2_61_43_31   ~
3 80 32 ~  welflx_2_79_31_31   ~
3 89 20 ~  welflx_2_88_19_31   ~
3 104 38 ~  welflx_2_103_37_31   ~
END PERIOD  32

BEGIN PERIOD  33
3 29 50 ~  welflx_2_28_49_32   ~
3 35 41 ~  welflx_2_34_40_32   ~
3 62 44 ~  welflx_2_61_43_32   ~
3 80 32 ~  welflx_2_79_31_32   ~
3 89 20 ~  welflx_2_88_19_32   ~
3 104 38 ~  welflx_2_103_37_32   ~
END PERIOD  33

BEGIN PERIOD  34
3 29 50 ~  welflx_2_28_49_33   ~
3 35 41 ~  welflx_2_34_40_33   ~
3 62 44 ~  welflx_2_61_43_33   ~
3 80 32 ~  welflx_2_79_31_33   ~
3 89 20 ~  welflx_2_88_19_33   ~
3 104 38 ~  welflx_2_103_37_33   ~
END PERIOD  34

BEGIN PERIOD  35
3 29 50 ~  welflx_2_28_49_34   ~
3 35 41 ~  welflx_2_34_40_34   ~
3 62 44 ~  welflx_2_61_43_34   ~
3 80 32 ~  welflx_2_79_31_34   ~
3 89 20 ~  welflx_2_88_19_34   ~
3 104 38 ~  welflx_2_103_37_34   ~
END PERIOD  35

BEGIN PERIOD  36
3 29 50 ~  welflx_2_28_49_35   ~
3 35 41 ~  welflx_2_34_40_35   ~
3 62 44 ~  welflx_2_61_43_35   ~
3 80 32 ~  welflx_2_79_31_35   ~
3 89 20 ~  welflx_2_88_19_35   ~
3 104 38 ~  welflx_2_103_37_35   ~
END PERIOD  36

BEGIN PERIOD  37
3 29 50 ~  welflx_2_28_49_36   ~
3 35 41 ~  welflx_2_34_40_36   ~
3 62 44 ~  welflx_2_61_43_36   ~
3 80 32 ~  welflx_2_79_31_36   ~
3 89 20 ~  welflx_2_88_19_36   ~
3 104 38 ~  welflx_2_103_37_36   ~
END PERIOD  37

BEGIN PERIOD  38
3 29 50 ~  welflx_2_28_49_37   ~
3 35 41 ~  welflx_2_34_40_37   ~
3 62 44 ~  welflx_2_61_43_37   ~
3 80 32 ~  welflx_2_79_31_37   ~
3 89 20 ~  welflx_2_88_19_37   ~
3 104 38 ~  welflx_2_103_37_37   ~
END PERIOD  38

BEGIN PERIOD  39
3 29 50 ~  welflx_2_28_49_38   ~
3 35 41 ~  welflx_2_34_40_38   ~
3 62 44 ~  welflx_2_61_43_38   ~
3 80 32 ~  welflx_2_79_31_38   ~
3 89 20 ~  welflx_2_88_19_38   ~
3 104 38 ~  welflx_2_103_37_38   ~
END PERIOD  39

BEGIN PERIOD  40
3 29 50 ~  welflx_2_28_49_39   ~
3 35 41 ~  welflx_2_34_40_39   ~
3 62 44 ~  welflx_2_61_43_39   ~
3 80 32 ~  welflx_2_79_31_39   ~
3 89 20 ~  welflx_2_88_19_39   ~
3 104 38 ~  welflx_2_103_37_39   ~
END PERIOD  40

BEGIN PERIOD  41
3 29 50 ~  welflx_2_28_49_40   ~
3 35 41 ~  welflx_2_34_40_40   ~
3 62 44 ~  welflx_2_61_43_40   ~
3 80 32 ~  welflx_2_79_31_40   ~
3 89 20 ~  welflx_2_88_19_40   ~
3 104 38 ~  welflx_2_103_37_40   ~
END PERIOD  41

BEGIN PERIOD  42
3 29 50 ~  welflx_2_28_49_41   ~
3 35 41 ~  welflx_2_34_40_41   ~
3 62 44 ~  welflx_2_61_43_41   ~
3 80 32 ~  welflx_2_79_31_41   ~
3 89 20 ~  welflx_2_88_19_41   ~
3 104 38 ~  welflx_2_103_37_41   ~
END PERIOD  42

BEGIN PERIOD  43
3 29 50 ~  welflx_2_28_49_42   ~
3 35 41 ~  welflx_2_34_40_42   ~
3 62 44 ~  welflx_2_61_43_42   ~
3 80 32 ~  welflx_2_79_31_42   ~
3 89 20 ~  welflx_2_88_19_42   ~
3 104 38 ~  welflx_2_103_37_42   ~
END PERIOD  43

BEGIN PERIOD  44
3 29 50 ~  welflx_2_28_49_43   ~
3 35 41 ~  welflx_2_34_40_43   ~
3 62 44 ~  welflx_2_61_43_43   ~
3 80 32 ~  welflx_2_79_31_43   ~
3 89 20 ~  welflx_2_88_19_43   ~
3 104 38 ~  welflx_2_103_37_43   ~
END PERIOD  44

BEGIN PERIOD  45
3 29 50 ~  welflx_2_28_49_44   ~
3 35 41 ~  welflx_2_34_40_44   ~
3 62 44 ~  welflx_2_61_43_44   ~
3 80 32 ~  welflx_2_79_31_44   ~
3 89 20 ~  welflx_2_88_19_44   ~
3 104 38 ~  welflx_2_103_37_44   ~
END PERIOD  45

BEGIN PERIOD  46
3 29 50 ~  welflx_2_28_49_45   ~
3 35 41 ~  welflx_2_34_40_45   ~
3 62 44 ~  welflx_2_61_43_45   ~
3 80 32 ~  welflx_2_79_31_45   ~
3 89 20 ~  welflx_2_88_19_45   ~
3 104 38 ~  welflx_2_103_37_45   ~
END PERIOD  46

BEGIN PERIOD  47
3 29 50 ~  welflx_2_28_49_46   ~
3 35 41 ~  welflx_2_34_40_46   ~
3 62 44 ~  welflx_2_61_43_46   ~
3 80 32 ~  welflx_2_79_31_46   ~
3 89 20 ~  welflx_2_88_19_46   ~
3 104 38 ~  welflx_2_103_37_46   ~
END PERIOD  47

BEGIN PERIOD  48
3 29 50 ~  welflx_2_28_49_47   ~
3 35 41 ~  welflx_2_34_40_47   ~
3 62 44 ~  welflx_2_61_43_47   ~
3 80 32 ~  welflx_2_79_31_47   ~
3 89 20 ~  welflx_2_88_19_47   ~
3 104 38 ~  welflx_2_103_37_47   ~
END PERIOD  48

BEGIN PERIOD  49
3 29 50 ~  welflx_2_28_49_48   ~
3 35 41 ~  welflx_2_34_40_48   ~
3 62 44 ~  welflx_2_61_43_48   ~
3 80 32 ~  welflx_2_79_31_48   ~
3 89 20 ~  welflx_2_88_19_48   ~
3 104 38 ~  welflx_2_103_37_48   ~
END PERIOD  49

BEGIN PERIOD  50
3 29 50 ~  welflx_2_28_49_49   ~
3 35 41 ~  welflx_2_34_40_49   ~
3 62 44 ~  welflx_2_61_43_49   ~
3 80 32 ~  welflx_2_79_31_49   ~
3 89 20 ~  welflx_2_88_19_49   ~
3 104 38 ~  welflx_2_103_37_49   ~
END PERIOD  50

BEGIN PERIOD  51
3 29 50 ~  welflx_2_28_49_50   ~
3 35 41 ~  welflx_2_34_40_50   ~
3 62 44 ~  welflx_2_61_43_50   ~
3 80 32 ~  welflx_2_79_31_50   ~
3 89 20 ~  welflx_2_88_19_50   ~
3 104 38 ~  welflx_2_103_37_50   ~
END PERIOD  51

BEGIN PERIOD  52
3 29 50 ~  welflx_2_28_49_51   ~
3 35 41 ~  welflx_2_34_40_51   ~
3 62 44 ~  welflx_2_61_43_51   ~
3 80 32 ~  welflx_2_79_31_51   ~
3 89 20 ~  welflx_2_88_19_51   ~
3 104 38 ~  welflx_2_103_37_51   ~
END PERIOD  52

BEGIN PERIOD  53
3 29 50 ~  welflx_2_28_49_52   ~
3 35 41 ~  welflx_2_34_40_52   ~
3 62 44 ~  welflx_2_61_43_52   ~
3 80 32 ~  welflx_2_79_31_52   ~
3 89 20 ~  welflx_2_88_19_52   ~
3 104 38 ~  welflx_2_103_37_52   ~
END PERIOD  53

BEGIN PERIOD  54
3 29 50 ~  welflx_2_28_49_53   ~
3 35 41 ~  welflx_2_34_40_53   ~
3 62 44 ~  welflx_2_61_43_53   ~
3 80 32 ~  welflx_2_79_31_53   ~
3 89 20 ~  welflx_2_88_19_53   ~
3 104 38 ~  welflx_2_103_37_53   ~
END PERIOD  54

BEGIN PERIOD  55
3 29 50 ~  welflx_2_28_49_54   ~
3 35 41 ~  welflx_2_34_40_54   ~
3 62 44 ~  welflx_2_61_43_54   ~
3 80 32 ~  welflx_2_79_31_54   ~
3 89 20 ~  welflx_2_88_19_54   ~
3 104 38 ~  welflx_2_103_37_54   ~
END PERIOD  55

BEGIN PERIOD  56
3 29 50 ~  welflx_2_28_49_55   ~
3 35 41 ~  welflx_2_34_40_55   ~
3 62 44 ~  welflx_2_61_43_55   ~
3 80 32 ~  welflx_2_79_31_55   ~
3 89 20 ~  welflx_2_88_19_55   ~
3 104 38 ~  welflx_2_103_37_55   ~
END PERIOD  56

BEGIN PERIOD  57
3 29 50 ~  welflx_2_28_49_56   ~
3 35 41 ~  welflx_2_34_40_56   ~
3 62 44 ~  welflx_2_61_43_56   ~
3 80 32 ~  welflx_2_79_31_56   ~
3 89 20 ~  welflx_2_88_19_56   ~
3 104 38 ~  welflx_2_103_37_56   ~
END PERIOD  57

BEGIN PERIOD  58
3 29 50 ~  welflx_2_28_49_57   ~
3 35 41 ~  welflx_2_34_40_57   ~
3 62 44 ~  welflx_2_61_43_57   ~
3 80 32 ~  welflx_2_79_31_57   ~
3 89 20 ~  welflx_2_88_19_57   ~
3 104 38 ~  welflx_2_103_37_57   ~
END PERIOD  58

BEGIN PERIOD  59
3 29 50 ~  welflx_2_28_49_58   ~
3 35 41 ~  welflx_2_34_40_58   ~
3 62 44 ~  welflx_2_61_43_58   ~
3 80 32 ~  welflx_2_79_31_58   ~
3 89 20 ~  welflx_2_88_19_58   ~
3 104 38 ~  welflx_2_103_37_58   ~
END PERIOD  59

BEGIN PERIOD  60
3 29 50 ~  welflx_2_28_49_59   ~
3 35 41 ~  welflx_2_34_40_59   ~
3 62 44 ~  welflx_2_61_43_59   ~
3 80 32 ~  welflx_2_79_31_59   ~
3 89 20 ~  welflx_2_88_19_59   ~
3 104 38 ~  welflx_2_103_37_59   ~
END PERIOD  60

BEGIN PERIOD  61
3 29 50 ~  welflx_2_28_49_60   ~
3 35 41 ~  welflx_2_34_40_60   ~
3 62 44 ~  welflx_2_61_43_60   ~
3 80 32 ~  welflx_2_79_31_60   ~
3 89 20 ~  welflx_2_88_19_60   ~
3 104 38 ~  welflx_2_103_37_60   ~
END PERIOD  61

BEGIN PERIOD  62
3 29 50 ~  welflx_2_28_49_61   ~
3 35 41 ~  welflx_2_34_40_61   ~
3 62 44 ~  welflx_2_61_43_61   ~
3 80 32 ~  welflx_2_79_31_61   ~
3 89 20 ~  welflx_2_88_19_61   ~
3 104 38 ~  welflx_2_103_37_61   ~
END PERIOD  62

BEGIN PERIOD  63
3 29 50 ~  welflx_2_28_49_62   ~
3 35 41 ~  welflx_2_34_40_62   ~
3 62 44 ~  welflx_2_61_43_62   ~
3 80 32 ~  welflx_2_79_31_62   ~
3 89 20 ~  welflx_2_88_19_62   ~
3 104 38 ~  welflx_2_103_37_62   ~
END PERIOD  63

BEGIN PERIOD  64
3 29 50 ~  welflx_2_28_49_63   ~
3 35 41 ~  welflx_2_34_40_63   ~
3 62 44 ~  welflx_2_61_43_63   ~
3 80 32 ~  welflx_2_79_31_63   ~
3 89 20 ~  welflx_2_88_19_63   ~
3 104 38 ~  welflx_2_103_37_63   ~
END PERIOD  64

BEGIN PERIOD  65
3 29 50 ~  welflx_2_28_49_64   ~
3 35 41 ~  welflx_2_34_40_64   ~
3 62 44 ~  welflx_2_61_43_64   ~
3 80 32 ~  welflx_2_79_31_64   ~
3 89 20 ~  welflx_2_88_19_64   ~
3 104 38 ~  welflx_2_103_37_64   ~
END PERIOD  65

BEGIN PERIOD  66
3 29 50 ~  welflx_2_28_49_65   ~
3 35 41 ~  welflx_2_34_40_65   ~
3 62 44 ~  welflx_2_61_43_65   ~
3 80 32 ~  welflx_2_79_31_65   ~
3 89 20 ~  welflx_2_88_19_65   ~
3 104 38 ~  welflx_2_103_37_65   ~
END PERIOD  66

BEGIN PERIOD  67
3 29 50 ~  welflx_2_28_49_66   ~
3 35 41 ~  welflx_2_34_40_66   ~
3 62 44 ~  welflx_2_61_43_66   ~
3 80 32 ~  welflx_2_79_31_66   ~
3 89 20 ~  welflx_2_88_19_66   ~
3 104 38 ~  welflx_2_103_37_66   ~
END PERIOD  67

BEGIN PERIOD  68
3 29 50 ~  welflx_2_28_49_67   ~
3 35 41 ~  welflx_2_34_40_67   ~
3 62 44 ~  welflx_2_61_43_67   ~
3 80 32 ~  welflx_2_79_31_67   ~
3 89 20 ~  welflx_2_88_19_67   ~
3 104 38 ~  welflx_2_103_37_67   ~
END PERIOD  68

BEGIN PERIOD  69
3 29 50 ~  welflx_2_28_49_68   ~
3 35 41 ~  welflx_2_34_40_68   ~
3 62 44 ~  welflx_2_61_43_68   ~
3 80 32 ~  welflx_2_79_31_68   ~
3 89 20 ~  welflx_2_88_19_68   ~
3 104 38 ~  welflx_2_103_37_68   ~
END PERIOD  69

BEGIN PERIOD  70
3 29 50 ~  welflx_2_28_49_69   ~
3 35 41 ~  welflx_2_34_40_69   ~
3 62 44 ~  welflx_2_61_43_69   ~
3 80 32 ~  welflx_2_79_31_69   ~
3 89 20 ~  welflx_2_88_19_69   ~
3 104 38 ~  welflx_2_103_37_69   ~
END PERIOD  70

BEGIN PERIOD  71
3 29 50 ~  welflx_2_28_49_70   ~
3 35 41 ~  welflx_2_34_40_70   ~
3 62 44 ~  welflx_2_61_43_70   ~
3 80 32 ~  welflx_2_79_31_70   ~
3 89 20 ~  welflx_2_88_19_70   ~
3 104 38 ~  welflx_2_103_37_70   ~
END PERIOD  71

BEGIN PERIOD  72
3 29 50 ~  welflx_2_28_49_71   ~
3 35 41 ~  welflx_2_34_40_71   ~
3 62 44 ~  welflx_2_61_43_71   ~
3 80 32 ~  welflx_2_79_31_71   ~
3 89 20 ~  welflx_2_88_19_71   ~
3 104 38 ~  welflx_2_103_37_71   ~
END PERIOD  72

BEGIN PERIOD  73
3 29 50 ~  welflx_2_28_49_72   ~
3 35 41 ~  welflx_2_34_40_72   ~
3 62 44 ~  welflx_2_61_43_72   ~
3 80 32 ~  welflx_2_79_31_72   ~
3 89 20 ~  welflx_2_88_19_72   ~
3 104 38 ~  welflx_2_103_37_72   ~
END PERIOD  73

BEGIN PERIOD  74
3 29 50 ~  welflx_2_28_49_73   ~
3 35 41 ~  welflx_2_34_40_73   ~
3 62 44 ~  welflx_2_61_43_73   ~
3 80 32 ~  welflx_2_79_31_73   ~
3 89 20 ~  welflx_2_88_19_73   ~
3 104 38 ~  welflx_2_103_37_73   ~
END PERIOD  74

BEGIN PERIOD  75
3 29 50 ~  welflx_2_28_49_74   ~
3 35 41 ~  welflx_2_34_40_74   ~
3 62 44 ~  welflx_2_61_43_74   ~
3 80 32 ~  welflx_2_79_31_74   ~
3 89 20 ~  welflx_2_88_19_74   ~
3 104 38 ~  welflx_2_103_37_74   ~
END PERIOD  75

BEGIN PERIOD  76
3 29 50 ~  welflx_2_28_49_75   ~
3 35 41 ~  welflx_2_34_40_75   ~
3 62 44 ~  welflx_2_61_43_75   ~
3 80 32 ~  welflx_2_79_31_75   ~
3 89 20 ~  welflx_2_88_19_75   ~
3 104 38 ~  welflx_2_103_37_75   ~
END PERIOD  76

BEGIN PERIOD  77
3 29 50 ~  welflx_2_28_49_76   ~
3 35 41 ~  welflx_2_34_40_76   ~
3 62 44 ~  welflx_2_61_43_76   ~
3 80 32 ~  welflx_2_79_31_76   ~
3 89 20 ~  welflx_2_88_19_76   ~
3 104 38 ~  welflx_2_103_37_76   ~
END PERIOD  77

BEGIN PERIOD  78
3 29 50 ~  welflx_2_28_49_77   ~
3 35 41 ~  welflx_2_34_40_77   ~
3 62 44 ~  welflx_2_61_43_77   ~
3 80 32 ~  welflx_2_79_31_77   ~
3 89 20 ~  welflx_2_88_19_77   ~
3 104 38 ~  welflx_2_103_37_77   ~
END PERIOD  78

BEGIN PERIOD  79
3 29 50 ~  welflx_2_28_49_78   ~
3 35 41 ~  welflx_2_34_40_78   ~
3 62 44 ~  welflx_2_61_43_78   ~
3 80 32 ~  welflx_2_79_31_78   ~
3 89 20 ~  welflx_2_88_19_78   ~
3 104 38 ~  welflx_2_103_37_78   ~
END PERIOD  79

BEGIN PERIOD  80
3 29 50 ~  welflx_2_28_49_79   ~
3 35 41 ~  welflx_2_34_40_79   ~
3 62 44 ~  welflx_2_61_43_79   ~
3 80 32 ~  welflx_2_79_31_79   ~
3 89 20 ~  welflx_2_88_19_79   ~
3 104 38 ~  welflx_2_103_37_79   ~
END PERIOD  80

BEGIN PERIOD  81
3 29 50 ~  welflx_2_28_49_80   ~
3 35 41 ~  welflx_2_34_40_80   ~
3 62 44 ~  welflx_2_61_43_80   ~
3 80 32 ~  welflx_2_79_31_80   ~
3 89 20 ~  welflx_2_88_19_80   ~
3 104 38 ~  welflx_2_103_37_80   ~
END PERIOD  81

BEGIN PERIOD  82
3 29 50 ~  welflx_2_28_49_81   ~
3 35 41 ~  welflx_2_34_40_81   ~
3 62 44 ~  welflx_2_61_43_81   ~
3 80 32 ~  welflx_2_79_31_81   ~
3 89 20 ~  welflx_2_88_19_81   ~
3 104 38 ~  welflx_2_103_37_81   ~
END PERIOD  82

BEGIN PERIOD  83
3 29 50 ~  welflx_2_28_49_82   ~
3 35 41 ~  welflx_2_34_40_82   ~
3 62 44 ~  welflx_2_61_43_82   ~
3 80 32 ~  welflx_2_79_31_82   ~
3 89 20 ~  welflx_2_88_19_82   ~
3 104 38 ~  welflx_2_103_37_82   ~
END PERIOD  83

BEGIN PERIOD  84
3 29 50 ~  welflx_2_28_49_83   ~
3 35 41 ~  welflx_2_34_40_83   ~
3 62 44 ~  welflx_2_61_43_83   ~
3 80 32 ~  welflx_2_79_31_83   ~
3 89 20 ~  welflx_2_88_19_83   ~
3 104 38 ~  welflx_2_103_37_83   ~
END PERIOD  84

BEGIN PERIOD  85
3 29 50 ~  welflx_2_28_49_84   ~
3 35 41 ~  welflx_2_34_40_84   ~
3 62 44 ~  welflx_2_61_43_84   ~
3 80 32 ~  welflx_2_79_31_84   ~
3 89 20 ~  welflx_2_88_19_84   ~
3 104 38 ~  welflx_2_103_37_84   ~
END PERIOD  85

BEGIN PERIOD  86
3 29 50 ~  welflx_2_28_49_85   ~
3 35 41 ~  welflx_2_34_40_85   ~
3 62 44 ~  welflx_2_61_43_85   ~
3 80 32 ~  welflx_2_79_31_85   ~
3 89 20 ~  welflx_2_88_19_85   ~
3 104 38 ~  welflx_2_103_37_85   ~
END PERIOD  86

BEGIN PERIOD  87
3 29 50 ~  welflx_2_28_49_86   ~
3 35 41 ~  welflx_2_34_40_86   ~
3 62 44 ~  welflx_2_61_43_86   ~
3 80 32 ~  welflx_2_79_31_86   ~
3 89 20 ~  welflx_2_88_19_86   ~
3 104 38 ~  welflx_2_103_37_86   ~
END PERIOD  87

BEGIN PERIOD  88
3 29 50 ~  welflx_2_28_49_87   ~
3 35 41 ~  welflx_2_34_40_87   ~
3 62 44 ~  welflx_2_61_43_87   ~
3 80 32 ~  welflx_2_79_31_87   ~
3 89 20 ~  welflx_2_88_19_87   ~
3 104 38 ~  welflx_2_103_37_87   ~
END PERIOD  88

BEGIN PERIOD  89
3 29 50 ~  welflx_2_28_49_88   ~
3 35 41 ~  welflx_2_34_40_88   ~
3 62 44 ~  welflx_2_61_43_88   ~
3 80 32 ~  welflx_2_79_31_88   ~
3 89 20 ~  welflx_2_88_19_88   ~
3 104 38 ~  welflx_2_103_37_88   ~
END PERIOD  89

BEGIN PERIOD  90
3 29 50 ~  welflx_2_28_49_89   ~
3 35 41 ~  welflx_2_34_40_89   ~
3 62 44 ~  welflx_2_61_43_89   ~
3 80 32 ~  welflx_2_79_31_89   ~
3 89 20 ~  welflx_2_88_19_89   ~
3 104 38 ~  welflx_2_103_37_89   ~
END PERIOD  90

BEGIN PERIOD  91
3 29 50 ~  welflx_2_28_49_90   ~
3 35 41 ~  welflx_2_34_40_90   ~
3 62 44 ~  welflx_2_61_43_90   ~
3 80 32 ~  welflx_2_79_31_90   ~
3 89 20 ~  welflx_2_88_19_90   ~
3 104 38 ~  welflx_2_103_37_90   ~
END PERIOD  91

BEGIN PERIOD  92
3 29 50 ~  welflx_2_28_49_91   ~
3 35 41 ~  welflx_2_34_40_91   ~
3 62 44 ~  welflx_2_61_43_91   ~
3 80 32 ~  welflx_2_79_31_91   ~
3 89 20 ~  welflx_2_88_19_91   ~
3 104 38 ~  welflx_2_103_37_91   ~
END PERIOD  92

BEGIN PERIOD  93
3 29 50 ~  welflx_2_28_49_92   ~
3 35 41 ~  welflx_2_34_40_92   ~
3 62 44 ~  welflx_2_61_43_92   ~
3 80 32 ~  welflx_2_79_31_92   ~
3 89 20 ~  welflx_2_88_19_92   ~
3 104 38 ~  welflx_2_103_37_92   ~
END PERIOD  93

BEGIN PERIOD  94
3 29 50 ~  welflx_2_28_49_93   ~
3 35 41 ~  welflx_2_34_40_93   ~
3 62 44 ~  welflx_2_61_43_93   ~
3 80 32 ~  welflx_2_79_31_93   ~
3 89 20 ~  welflx_2_88_19_93   ~
3 104 38 ~  welflx_2_103_37_93   ~
END PERIOD  94

BEGIN PERIOD  95
3 29 50 ~  welflx_2_28_49_94   ~
3 35 41 ~  welflx_2_34_40_94   ~
3 62 44 ~  welflx_2_61_43_94   ~
3 80 32 ~  welflx_2_79_31_94   ~
3 89 20 ~  welflx_2_88_19_94   ~
3 104 38 ~  welflx_2_103_37_94   ~
END PERIOD  95

BEGIN PERIOD  96
3 29 50 ~  welflx_2_28_49_95   ~
3 35 41 ~  welflx_2_34_40_95   ~
3 62 44 ~  welflx_2_61_43_95   ~
3 80 32 ~  welflx_2_79_31_95   ~
3 89 20 ~  welflx_2_88_19_95   ~
3 104 38 ~  welflx_2_103_37_95   ~
END PERIOD  96

BEGIN PERIOD  97
3 29 50 ~  welflx_2_28_49_96   ~
3 35 41 ~  welflx_2_34_40_96   ~
3 62 44 ~  welflx_2_61_43_96   ~
3 80 32 ~  welflx_2_79_31_96   ~
3 89 20 ~  welflx_2_88_19_96   ~
3 104 38 ~  welflx_2_103_37_96   ~
END PERIOD  97

BEGIN PERIOD  98
3 29 50 ~  welflx_2_28_49_97   ~
3 35 41 ~  welflx_2_34_40_97   ~
3 62 44 ~  welflx_2_61_43_97   ~
3 80 32 ~  welflx_2_79_31_97   ~
3 89 20 ~  welflx_2_88_19_97   ~
3 104 38 ~  welflx_2_103_37_97   ~
END PERIOD  98

BEGIN PERIOD  99
3 29 50 ~  welflx_2_28_49_98   ~
3 35 41 ~  welflx_2_34_40_98   ~
3 62 44 ~  welflx_2_61_43_98   ~
3 80 32 ~  welflx_2_79_31_98   ~
3 89 20 ~  welflx_2_88_19_98   ~
3 104 38 ~  welflx_2_103_37_98   ~
END PERIOD  99

BEGIN PERIOD  100
3 29 50 ~  welflx_2_28_49_99   ~
3 35 41 ~  welflx_2_34_40_99   ~
3 62 44 ~  welflx_2_61_43_99   ~
3 80 32 ~  welflx_2_79_31_99   ~
3 89 20 ~  welflx_2_88_19_99   ~
3 104 38 ~  welflx_2_103_37_99   ~
END PERIOD  100

BEGIN PERIOD  101
3 29 50 ~  welflx_2_28_49_100   ~
3 35 41 ~  welflx_2_34_40_100   ~
3 62 44 ~  welflx_2_61_43_100   ~
3 80 32 ~  welflx_2_79_31_100   ~
3 89 20 ~  welflx_2_88_19_100   ~
3 104 38 ~  welflx_2_103_37_100   ~
END PERIOD  101

BEGIN PERIOD  102
3 29 50 ~  welflx_2_28_49_101   ~
3 35 41 ~  welflx_2_34_40_101   ~
3 62 44 ~  welflx_2_61_43_101   ~
3 80 32 ~  welflx_2_79_31_101   ~
3 89 20 ~  welflx_2_88_19_101   ~
3 104 38 ~  welflx_2_103_37_101   ~
END PERIOD  102

BEGIN PERIOD  103
3 29 50 ~  welflx_2_28_49_102   ~
3 35 41 ~  welflx_2_34_40_102   ~
3 62 44 ~  welflx_2_61_43_102   ~
3 80 32 ~  welflx_2_79_31_102   ~
3 89 20 ~  welflx_2_88_19_102   ~
3 104 38 ~  welflx_2_103_37_102   ~
END PERIOD  103

BEGIN PERIOD  104
3 29 50 ~  welflx_2_28_49_103   ~
3 35 41 ~  welflx_2_34_40_103   ~
3 62 44 ~  welflx_2_61_43_103   ~
3 80 32 ~  welflx_2_79_31_103   ~
3 89 20 ~  welflx_2_88_19_103   ~
3 104 38 ~  welflx_2_103_37_103   ~
END PERIOD  104

BEGIN PERIOD  105
3 29 50 ~  welflx_2_28_49_104   ~
3 35 41 ~  welflx_2_34_40_104   ~
3 62 44 ~  welflx_2_61_43_104   ~
3 80 32 ~  welflx_2_79_31_104   ~
3 89 20 ~  welflx_2_88_19_104   ~
3 104 38 ~  welflx_2_103_37_104   ~
END PERIOD  105

BEGIN PERIOD  106
3 29 50 ~  welflx_2_28_49_105   ~
3 35 41 ~  welflx_2_34_40_105   ~
3 62 44 ~  welflx_2_61_43_105   ~
3 80 32 ~  welflx_2_79_31_105   ~
3 89 20 ~  welflx_2_88_19_105   ~
3 104 38 ~  welflx_2_103_37_105   ~
END PERIOD  106

BEGIN PERIOD  107
3 29 50 ~  welflx_2_28_49_106   ~
3 35 41 ~  welflx_2_34_40_106   ~
3 62 44 ~  welflx_2_61_43_106   ~
3 80 32 ~  welflx_2_79_31_106   ~
3 89 20 ~  welflx_2_88_19_106   ~
3 104 38 ~  welflx_2_103_37_106   ~
END PERIOD  107

BEGIN PERIOD  108
3 29 50 ~  welflx_2_28_49_107   ~
3 35 41 ~  welflx_2_34_40_107   ~
3 62 44 ~  welflx_2_61_43_107   ~
3 80 32 ~  welflx_2_79_31_107   ~
3 89 20 ~  welflx_2_88_19_107   ~
3 104 38 ~  welflx_2_103_37_107   ~
END PERIOD  108

BEGIN PERIOD  109
3 29 50 ~  welflx_2_28_49_108   ~
3 35 41 ~  welflx_2_34_40_108   ~
3 62 44 ~  welflx_2_61_43_108   ~
3 80 32 ~  welflx_2_79_31_108   ~
3 89 20 ~  welflx_2_88_19_108   ~
3 104 38 ~  welflx_2_103_37_108   ~
END PERIOD  109

BEGIN PERIOD  110
3 29 50 ~  welflx_2_28_49_109   ~
3 35 41 ~  welflx_2_34_40_109   ~
3 62 44 ~  welflx_2_61_43_109   ~
3 80 32 ~  welflx_2_79_31_109   ~
3 89 20 ~  welflx_2_88_19_109   ~
3 104 38 ~  welflx_2_103_37_109   ~
END PERIOD  110

BEGIN PERIOD  111
3 29 50 ~  welflx_2_28_49_110   ~
3 35 41 ~  welflx_2_34_40_110   ~
3 62 44 ~  welflx_2_61_43_110   ~
3 80 32 ~  welflx_2_79_31_110   ~
3 89 20 ~  welflx_2_88_19_110   ~
3 104 38 ~  welflx_2_103_37_110   ~
END PERIOD  111

BEGIN PERIOD  112
3 29 50 ~  welflx_2_28_49_111   ~
3 35 41 ~  welflx_2_34_40_111   ~
3 62 44 ~  welflx_2_61_43_111   ~
3 80 32 ~  welflx_2_79_31_111   ~
3 89 20 ~  welflx_2_88_19_111   ~
3 104 38 ~  welflx_2_103_37_111   ~
END PERIOD  112

BEGIN PERIOD  113
3 29 50 ~  welflx_2_28_49_112   ~
3 35 41 ~  welflx_2_34_40_112   ~
3 62 44 ~  welflx_2_61_43_112   ~
3 80 32 ~  welflx_2_79_31_112   ~
3 89 20 ~  welflx_2_88_19_112   ~
3 104 38 ~  welflx_2_103_37_112   ~
END PERIOD  113

BEGIN PERIOD  114
3 29 50 ~  welflx_2_28_49_113   ~
3 35 41 ~  welflx_2_34_40_113   ~
3 62 44 ~  welflx_2_61_43_113   ~
3 80 32 ~  welflx_2_79_31_113   ~
3 89 20 ~  welflx_2_88_19_113   ~
3 104 38 ~  welflx_2_103_37_113   ~
END PERIOD  114

BEGIN PERIOD  115
3 29 50 ~  welflx_2_28_49_114   ~
3 35 41 ~  welflx_2_34_40_114   ~
3 62 44 ~  welflx_2_61_43_114   ~
3 80 32 ~  welflx_2_79_31_114   ~
3 89 20 ~  welflx_2_88_19_114   ~
3 104 38 ~  welflx_2_103_37_114   ~
END PERIOD  115

BEGIN PERIOD  116
3 29 50 ~  welflx_2_28_49_115   ~
3 35 41 ~  welflx_2_34_40_115   ~
3 62 44 ~  welflx_2_61_43_115   ~
3 80 32 ~  welflx_2_79_31_115   ~
3 89 20 ~  welflx_2_88_19_115   ~
3 104 38 ~  welflx_2_103_37_115   ~
END PERIOD  116

BEGIN PERIOD  117
3 29 50 ~  welflx_2_28_49_116   ~
3 35 41 ~  welflx_2_34_40_116   ~
3 62 44 ~  welflx_2_61_43_116   ~
3 80 32 ~  welflx_2_79_31_116   ~
3 89 20 ~  welflx_2_88_19_116   ~
3 104 38 ~  welflx_2_103_37_116   ~
END PERIOD  117

BEGIN PERIOD  118
3 29 50 ~  welflx_2_28_49_117   ~
3 35 41 ~  welflx_2_34_40_117   ~
3 62 44 ~  welflx_2_61_43_117   ~
3 80 32 ~  welflx_2_79_31_117   ~
3 89 20 ~  welflx_2_88_19_117   ~
3 104 38 ~  welflx_2_103_37_117   ~
END PERIOD  118

BEGIN PERIOD  119
3 29 50 ~  welflx_2_28_49_118   ~
3 35 41 ~  welflx_2_34_40_118   ~
3 62 44 ~  welflx_2_61_43_118   ~
3 80 32 ~  welflx_2_79_31_118   ~
3 89 20 ~  welflx_2_88_19_118   ~
3 104 38 ~  welflx_2_103_37_118   ~
END PERIOD  119

BEGIN PERIOD  120
3 29 50 ~  welflx_2_28_49_119   ~
3 35 41 ~  welflx_2_34_40_119   ~
3 62 44 ~  welflx_2_61_43_119   ~
3 80 32 ~  welflx_2_79_31_119   ~
3 89 20 ~  welflx_2_88_19_119   ~
3 104 38 ~  welflx_2_103_37_119   ~
END PERIOD  120

BEGIN PERIOD  121
3 29 50 ~  welflx_2_28_49_120   ~
3 35 41 ~  welflx_2_34_40_120   ~
3 62 44 ~  welflx_2_61_43_120   ~
3 80 32 ~  welflx_2_79_31_120   ~
3 89 20 ~  welflx_2_88_19_120   ~
3 104 38 ~  welflx_2_103_37_120   ~
END PERIOD  121

BEGIN PERIOD  122
3 29 50 ~  welflx_2_28_49_121   ~
3 35 41 ~  welflx_2_34_40_121   ~
3 62 44 ~  welflx_2_61_43_121   ~
3 80 32 ~  welflx_2_79_31_121   ~
3 89 20 ~  welflx_2_88_19_121   ~
3 104 38 ~  welflx_2_103_37_121   ~
END PERIOD  122

BEGIN PERIOD  123
3 29 50 ~  welflx_2_28_49_122   ~
3 35 41 ~  welflx_2_34_40_122   ~
3 62 44 ~  welflx_2_61_43_122   ~
3 80 32 ~  welflx_2_79_31_122   ~
3 89 20 ~  welflx_2_88_19_122   ~
3 104 38 ~  welflx_2_103_37_122   ~
END PERIOD  123

BEGIN PERIOD  124
3 29 50 ~  welflx_2_28_49_123   ~
3 35 41 ~  welflx_2_34_40_123   ~
3 62 44 ~  welflx_2_61_43_123   ~
3 80 32 ~  welflx_2_79_31_123   ~
3 89 20 ~  welflx_2_88_19_123   ~
3 104 38 ~  welflx_2_103_37_123   ~
END PERIOD  124

BEGIN PERIOD  125
3 29 50 ~  welflx_2_28_49_124   ~
3 35 41 ~  welflx_2_34_40_124   ~
3 62 44 ~  welflx_2_61_43_124   ~
3 80 32 ~  welflx_2_79_31_124   ~
3 89 20 ~  welflx_2_88_19_124   ~
3 104 38 ~  welflx_2_103_37_124   ~
END PERIOD  125

BEGIN PERIOD  126
3 29 50 ~  welflx_2_28_49_125   ~
3 35 41 ~  welflx_2_34_40_125   ~
3 62 44 ~  welflx_2_61_43_125   ~
3 80 32 ~  welflx_2_79_31_125   ~
3 89 20 ~  welflx_2_88_19_125   ~
3 104 38 ~  welflx_2_103_37_125   ~
END PERIOD  126

BEGIN PERIOD  127
3 29 50 ~  welflx_2_28_49_126   ~
3 35 41 ~  welflx_2_34_40_126   ~
3 62 44 ~  welflx_2_61_43_126   ~
3 80 32 ~  welflx_2_79_31_126   ~
3 89 20 ~  welflx_2_88_19_126   ~
3 104 38 ~  welflx_2_103_37_126   ~
END PERIOD  127

BEGIN PERIOD  128
3 29 50 ~  welflx_2_28_49_127   ~
3 35 41 ~  welflx_2_34_40_127   ~
3 62 44 ~  welflx_2_61_43_127   ~