BEGIN Options
  PRINT_INPUT
  PRINT_FLOWS
  SAVE_FLOWS
END Options

BEGIN Dimensions
  MAXBOUND  6
END Dimensions

BEGIN PERIOD  1
3 10 17 -1.750000000000000e+02
3 12 14 -1.7500000000000000e+02
3 21 15 -1.7500000000000000e+02
3 27 11 -1.7500000000000000e+02
3 30 7 -1.750000000000000e+02
3 35 13 -1.7500000000000000e+02
END PERIOD  1

BEGIN PERIOD  2
3 10 17 -62.721499999999998920
3 12 14 -62.7214999999999989200
3 21 15 -62.7214999999999989200
3 27 11 -62.7214999999999989200
3 30 7 -62.721499999999998920
3 35 13 -62.7214999999999989200
END PERIOD  2

BEGIN PERIOD  3
3 10 17 -69.591230000000010136
3 12 14 -69.5912300000000101363
3 21 15 -69.5912300000000101363
3 27 11 -69.5912300000000101363
3 30 7 -69.591230000000010136
3 35 13 -69.5912300000000101363
END PERIOD  3

BEGIN PERIOD  4
3 10 17 -1.071519100000000e+02
3 12 14 -1.0715191000000002e+02
3 21 15 -1.0715191000000002e+02
3 27 11 -1.0715191000000002e+02
3 30 7 -1.071519100000000e+02
3 35 13 -1.0715191000000002e+02
END PERIOD  4

BEGIN PERIOD  5
3 10 17 -1.644673200000000e+02
3 12 14 -1.6446732000000000e+02
3 21 15 -1.6446732000000000e+02
3 27 11 -1.6446732000000000e+02
3 30 7 -1.644673200000000e+02
3 35 13 -1.6446732000000000e+02
END PERIOD  5

BEGIN PERIOD  6
3 10 17 -2.248494100000000e+02
3 12 14 -2.2484941000000001e+02
3 21 15 -2.2484941000000001e+02
3 27 11 -2.2484941000000001e+02
3 30 7 -2.248494100000000e+02
3 35 13 -2.2484941000000001e+02
END PERIOD  6

BEGIN PERIOD  7
3 10 17 -2.707173500000000e+02
3 12 14 -2.7071735000000001e+02
3 21 15 -2.7071735000000001e+02
3 27 11 -2.7071735000000001e+02
3 30 7 -2.707173500000000e+02
3 35 13 -2.7071735000000001e+02
END PERIOD  7

BEGIN PERIOD  9
3 10 17 -2.887160600000000e+02
3 12 14 -2.8871606000000003e+02
3 21 15 -2.8871606000000003e+02
3 27 11 -2.8871606000000003e+02
3 30 7 -2.887160600000000e+02
3 35 13 -2.8871606000000003e+02
END PERIOD  9

BEGIN PERIOD  10
3 10 17 -2.736050700000000e+02
3 12 14 -2.7360507000000001e+02
3 21 15 -2.7360507000000001e+02
3 27 11 -2.7360507000000001e+02
3 30 7 -2.736050700000000e+02
3 35 13 -2.7360507000000001e+02
END PERIOD  10

BEGIN PERIOD  11
3 10 17 -2.2978413000000000e+02
3 12 14 -2.29784130000000005e+02
3 21 15 -2.29784130000000005e+02
3 27 11 -2.29784130000000005e+02
3 30 7 -2.2978413000000000e+02
3 35 13 -2.29784130000000005e+02
END PERIOD  11

BEGIN PERIOD  12
3 10 17 -1.7001218000000000e+02
3 12 14 -1.70012180000000001e+02
3 21 15 -1.70012180000000001e+02
3 27 11 -1.70012180000000001e+02
3 30 7 -1.7001218000000000e+02
3 35 13 -1.70012180000000001e+02
END PERIOD  12

BEGIN PERIOD  13
3 10 17 -1.1169247000000000e+02
3 12 14 -1.11692470000000000e+02
3 21 15 -1.11692470000000000e+02
3 27 11 -1.11692470000000000e+02
3 30 7 -1.1169247000000000e+02
3 35 13 -1.11692470000000000e+02
END PERIOD  13

BEGIN PERIOD  14
3 10 17 -71.8054699999999996862
3 12 14 -71.80546999999999968622
3 21 15 -71.80546999999999968622
3 27 11 -71.80546999999999968622
3 30 7 -71.8054699999999996862
3 35 13 -71.80546999999999968622
END PERIOD  14

BEGIN PERIOD  15
3 10 17 -61.9647140000000007376
3 12 14 -61.96471400000000073760
3 21 15 -61.96471400000000073760
3 27 11 -61.96471400000000073760
3 30 7 -61.9647140000000007376
3 35 13 -61.96471400000000073760
END PERIOD  15

BEGIN PERIOD  16
3 10 17 -85.0354400000000225646
3 12 14 -85.03544000000002256456
3 21 15 -85.03544000000002256456
3 27 11 -85.03544000000002256456
3 30 7 -85.0354400000000225646
3 35 13 -85.03544000000002256456
END PERIOD  16

BEGIN PERIOD  17
3 10 17 -1.3430035000000001e+02
3 12 14 -1.34300350000000009e+02
3 21 15 -1.34300350000000009e+02
3 27 11 -1.34300350000000009e+02
3 30 7 -1.3430035000000001e+02
3 35 13 -1.34300350000000009e+02
END PERIOD  17

BEGIN PERIOD  18
3 10 17 -1.9541543999999999e+02
3 12 14 -1.95415439999999990e+02
3 21 15 -1.95415439999999990e+02
3 27 11 -1.95415439999999990e+02
3 30 7 -1.9541543999999999e+02
3 35 13 -1.95415439999999990e+02
END PERIOD  18

BEGIN PERIOD  19
3 10 17 -2.5058632000000003e+02
3 12 14 -2.50586320000000029e+02
3 21 15 -2.50586320000000029e+02
3 27 11 -2.50586320000000029e+02
3 30 7 -2.5058632000000003e+02
3 35 13 -2.50586320000000029e+02
END PERIOD  19

BEGIN PERIOD  20
3 10 17 -2.8374939999999998e+02
3 12 14 -2.83749399999999980e+02
3 21 15 -2.83749399999999980e+02
3 27 11 -2.83749399999999980e+02
3 30 7 -2.8374939999999998e+02
3 35 13 -2.83749399999999980e+02
END PERIOD  20

BEGIN PERIOD  21
3 10 17 -2.8524889999999999e+02
3 12 14 -2.85248899999999992e+02
3 21 15 -2.85248899999999992e+02
3 27 11 -2.85248899999999992e+02
3 30 7 -2.8524889999999999e+02
3 35 13 -2.85248899999999992e+02
END PERIOD  21

BEGIN PERIOD  22
3 10 17 -2.5464815999999999e+02
3 12 14 -2.54648159999999990e+02
3 21 15 -2.54648159999999990e+02
3 27 11 -2.54648159999999990e+02
3 30 7 -2.5464815999999999e+02
3 35 13 -2.54648159999999990e+02
END PERIOD  22

BEGIN PERIOD  23
3 10 17 -2.0085701000000000e+02
3 12 14 -2.00857010000000002e+02
3 21 15 -2.00857010000000002e+02
3 27 11 -2.00857010000000002e+02
3 30 7 -2.0085701000000000e+02
3 35 13 -2.00857010000000002e+02
END PERIOD  23

BEGIN PERIOD  24
3 10 17 -1.3953728000000001e+02
3 12 14 -1.39537280000000010e+02
3 21 15 -1.39537280000000010e+02
3 27 11 -1.39537280000000010e+02
3 30 7 -1.3953728000000001e+02
3 35 13 -1.39537280000000010e+02
END PERIOD  24

BEGIN PERIOD  25
3 10 17 -88.5429150000000220189
3 12 14 -88.54291500000002201887
3 21 15 -88.54291500000002201887
3 27 11 -88.54291500000002201887
3 30 7 -88.5429150000000220189
3 35 13 -88.54291500000002201887
END PERIOD  25

