BEGIN Options
  READASARRAYS
END Options

BEGIN PERIOD  1
  recharge
   constant 1.00000000000e-04
END PERIOD  1

BEGIN PERIOD  2
  recharge
   constant 5.02310700000e-05
END PERIOD  2

BEGIN PERIOD  3
  recharge
   constant 5.16332800000e-05
END PERIOD  3

BEGIN PERIOD  4
  recharge
   constant 5.30498600000e-05
END PERIOD  4

BEGIN PERIOD  5
  recharge
   constant 5.44803900000e-05
END PERIOD  5

BEGIN PERIOD  6
  recharge
   constant 5.59244500000e-05
END PERIOD  6

BEGIN PERIOD  7
  recharge
   constant 5.73816000000e-05
END PERIOD  7

BEGIN PERIOD  8
  recharge
   constant 5.88514200000e-05
END PERIOD  8

BEGIN PERIOD  9
  recharge
   constant 6.03334700000e-05
END PERIOD  9

BEGIN PERIOD  10
  recharge
   constant 6.18273000000e-05
END PERIOD  10

BEGIN PERIOD  11
  recharge
   constant 6.333247000000e-05
END PERIOD  11

BEGIN PERIOD  12
  recharge
   constant 6.484854000000e-05
END PERIOD  12

BEGIN PERIOD  13
  recharge
   constant 6.637505000000e-05
END PERIOD  13

BEGIN PERIOD  14
  recharge
   constant 6.791155000000e-05
END PERIOD  14

BEGIN PERIOD  15
  recharge
   constant 6.945759000000e-05
END PERIOD  15

BEGIN PERIOD  16
  recharge
   constant 7.101271000000e-05
END PERIOD  16

BEGIN PERIOD  17
  recharge
   constant 7.257643000000e-05
END PERIOD  17

BEGIN PERIOD  18
  recharge
   constant 7.414831000000e-05
END PERIOD  18

BEGIN PERIOD  19
  recharge
   constant 7.572787000000e-05
END PERIOD  19

BEGIN PERIOD  20
  recharge
   constant 7.731463000000e-05
END PERIOD  20

BEGIN PERIOD  21
  recharge
   constant 7.890815000000e-05
END PERIOD  21

BEGIN PERIOD  22
  recharge
   constant 8.050792000000e-05
END PERIOD  22

BEGIN PERIOD  23
  recharge
   constant 8.211349000000e-05
END PERIOD  23

BEGIN PERIOD  24
  recharge
   constant 8.372437000000e-05
END PERIOD  24

BEGIN PERIOD  25
  recharge
   constant 8.534009000000e-05
END PERIOD  25

BEGIN PERIOD  26
  recharge
   constant 8.696016000000e-05
END PERIOD  26

BEGIN PERIOD  27
  recharge
   constant 8.858411000000e-05
END PERIOD  27

BEGIN PERIOD  28
  recharge
   constant 9.021146000000e-05
END PERIOD  28

BEGIN PERIOD  29
  recharge
   constant 9.184171000000e-05
END PERIOD  29

BEGIN PERIOD  30
  recharge
   constant 9.347438000000e-05
END PERIOD  30

BEGIN PERIOD  31
  recharge
   constant 9.510900000000e-05
END PERIOD  31

BEGIN PERIOD  32
  recharge
   constant 9.674506000000e-05
END PERIOD  32

BEGIN PERIOD  33
  recharge
   constant 9.838209000000e-05
END PERIOD  33

BEGIN PERIOD  34
  recharge
   constant 1.000196000000e-04
END PERIOD  34

BEGIN PERIOD  35
  recharge
   constant 1.016571000000e-04
END PERIOD  35

BEGIN PERIOD  36
  recharge
   constant 1.032941000000e-04
END PERIOD  36

BEGIN PERIOD  37
  recharge
   constant 1.049302000000e-04
END PERIOD  37

BEGIN PERIOD  38
  recharge
   constant 1.065647000000e-04
END PERIOD  38

BEGIN PERIOD  39
  recharge
   constant 1.081974000000e-04
END PERIOD  39

BEGIN PERIOD  40
  recharge
   constant 1.098276000000e-04
END PERIOD  40

BEGIN PERIOD  41
  recharge
   constant 1.114548000000e-04
END PERIOD  41

BEGIN PERIOD  42
  recharge
   constant 1.130787000000e-04
END PERIOD  42

BEGIN PERIOD  43
  recharge
   constant 1.146987000000e-04
END PERIOD  43

BEGIN PERIOD  44
  recharge
   constant 1.163143000000e-04
END PERIOD  44

BEGIN PERIOD  45
  recharge
   constant 1.179250000000e-04
END PERIOD  45

BEGIN PERIOD  46
  recharge
   constant 1.195305000000e-04
END PERIOD  46

BEGIN PERIOD  47
  recharge
   constant 1.211301000000e-04
END PERIOD  47

BEGIN PERIOD  48
  recharge
   constant 1.227234000000e-04
END PERIOD  48

BEGIN PERIOD  49
  recharge
   constant 1.243101000000e-04
END PERIOD  49

BEGIN PERIOD  50
  recharge
   constant 1.258894000000e-04
END PERIOD  50

BEGIN PERIOD  51
  recharge
   constant 1.274611000000e-04
END PERIOD  51

BEGIN PERIOD  52
  recharge
   constant 1.290246000000e-04
END PERIOD  52

BEGIN PERIOD  53
  recharge
   constant 1.305795000000e-04
END PERIOD  53

BEGIN PERIOD  54
  recharge
   constant 1.321254000000e-04
END PERIOD  54

BEGIN PERIOD  55
  recharge
   constant 1.336616000000e-04
END PERIOD  55

BEGIN PERIOD  56
  recharge
   constant 1.351879000000e-04
END PERIOD  56

BEGIN PERIOD  57
  recharge
   constant 1.367037000000e-04
END PERIOD  57

BEGIN PERIOD  58
  recharge
   constant 1.382086000000e-04
END PERIOD  58

BEGIN PERIOD  59
  recharge
   constant 1.397022000000e-04
END PERIOD  59

BEGIN PERIOD  60
  recharge
   constant 1.411839000000e-04
END PERIOD  60

BEGIN PERIOD  61
  recharge
   constant 1.426534000000e-04
END PERIOD  61

BEGIN PERIOD  62
  recharge
   constant 1.441103000000e-04
END PERIOD  62

BEGIN PERIOD  63
  recharge
   constant 1.455540000000e-04
END PERIOD  63

BEGIN PERIOD  64
  recharge
   constant 1.469842000000e-04
END PERIOD  64

BEGIN PERIOD  65
  recharge
   constant 1.484005000000e-04
END PERIOD  65

BEGIN PERIOD  66
  recharge
   constant 1.498023000000e-04
END PERIOD  66

BEGIN PERIOD  67
  recharge
   constant 1.511894000000e-04
END PERIOD  67

BEGIN PERIOD  68
  recharge
   constant 1.525612000000e-04
END PERIOD  68

BEGIN PERIOD  69
  recharge
   constant 1.539175000000e-04
END PERIOD  69

BEGIN PERIOD  70
  recharge
   constant 1.552577000000e-04
END PERIOD  70

BEGIN PERIOD  71
  recharge
   constant 1.565815000000e-04
END PERIOD  71

BEGIN PERIOD  72
  recharge
   constant 1.578885000000e-04
END PERIOD  72

BEGIN PERIOD  73
  recharge
   constant 1.591782000000e-04
END PERIOD  73

BEGIN PERIOD  74
  recharge
   constant 1.604505000000e-04
END PERIOD  74

BEGIN PERIOD  75
  recharge
   constant 1.617047000000e-04
END PERIOD  75

BEGIN PERIOD  76
  recharge
   constant 1.629406000000e-04
END PERIOD  76

BEGIN PERIOD  77
  recharge
   constant 1.641578000000e-04
END PERIOD  77

BEGIN PERIOD  78
  recharge
   constant 1.653559000000e-04
END PERIOD  78

BEGIN PERIOD  79
  recharge
   constant 1.665346000000e-04
END PERIOD  79

BEGIN PERIOD  80
  recharge
   constant 1.676936000000e-04
END PERIOD  80

BEGIN PERIOD  81
  recharge
   constant 1.688324000000e-04
END PERIOD  81

BEGIN PERIOD  82
  recharge
   constant 1.699508000000e-04
END PERIOD  82

BEGIN PERIOD  83
  recharge
   constant 1.710484000000e-04
END PERIOD  83

BEGIN PERIOD  84
  recharge
   constant 1.721249000000e-04
END PERIOD  84

BEGIN PERIOD  85
  recharge
   constant 1.731799000000e-04
END PERIOD  85

BEGIN PERIOD  86
  recharge
   constant 1.742132000000e-04
END PERIOD  86

BEGIN PERIOD  87
  recharge
   constant 1.752245000000e-04
END PERIOD  87

BEGIN PERIOD  88
  recharge
   constant 1.762134000000e-04
END PERIOD  88

BEGIN PERIOD  89
  recharge
   constant 1.771797000000e-04
END PERIOD  89

BEGIN PERIOD  90
  recharge
   constant 1.781230000000e-04
END PERIOD  90

BEGIN PERIOD  91
  recharge
   constant 1.790431000000e-04
END PERIOD  91

BEGIN PERIOD  92
  recharge
   constant 1.799397000000e-04
END PERIOD  92

BEGIN PERIOD  94
  recharge
   constant 1.808126000000e-04
END PERIOD  94

BEGIN PERIOD  95
  recharge
   constant 1.816615000000e-04
END PERIOD  95

BEGIN PERIOD  96
  recharge
   constant 1.824861000000e-04
END PERIOD  96

BEGIN PERIOD  97
  recharge
   constant 1.832862000000e-04
END PERIOD  97

BEGIN PERIOD  98
  recharge
   constant 1.840615000000e-04
END PERIOD  98

BEGIN PERIOD  99
  recharge
   constant 1.848119000000e-04
END PERIOD  99

BEGIN PERIOD  100
  recharge
   constant 1.855370000000e-04
END PERIOD  100

BEGIN PERIOD  101
  recharge
   constant 1.8623680000000e-04
END PERIOD  101

BEGIN PERIOD  102
  recharge
   constant 1.8691090000000e-04
END PERIOD  102

BEGIN PERIOD  103
  recharge
   constant 1.8755920000000e-04
END PERIOD  103

BEGIN PERIOD  104
  recharge
   constant 1.8818150000000e-04
END PERIOD  104

BEGIN PERIOD  105
  recharge
   constant 1.8877760000000e-04
END PERIOD  105

BEGIN PERIOD  106
  recharge
   constant 1.8934730000000e-04
END PERIOD  106

BEGIN PERIOD  107
  recharge
   constant 1.8989040000000e-04
END PERIOD  107

BEGIN PERIOD  108
  recharge
   constant 1.9040690000000e-04
END PERIOD  108

BEGIN PERIOD  109
  recharge
   constant 1.9089640000000e-04
END PERIOD  109

BEGIN PERIOD  110
  recharge
   constant 1.9135900000000e-04
END PERIOD  110

BEGIN PERIOD  111
  recharge
   constant 1.9179440000000e-04
END PERIOD  111

BEGIN PERIOD  112
  recharge
   constant 1.9220260000000e-04
END PERIOD  112

BEGIN PERIOD  113
  recharge
   constant 1.9258330000000e-04
END PERIOD  113

BEGIN PERIOD  114
  recharge
   constant 1.9293660000000e-04
END PERIOD  114

BEGIN PERIOD  115
  recharge
   constant 1.9326220000000e-04
END PERIOD  115

BEGIN PERIOD  116
  recharge
   constant 1.9356010000000e-04
END PERIOD  116

BEGIN PERIOD  117
  recharge
   constant 1.9383030000000e-04
END PERIOD  117

BEGIN PERIOD  118
  recharge
   constant 1.9407250000000e-04
END PERIOD  118

BEGIN PERIOD  119
  recharge
   constant 1.9428680000000e-04
END PERIOD  119

BEGIN PERIOD  120
  recharge
   constant 1.9447300000000e-04
END PERIOD  120

BEGIN PERIOD  121
  recharge
   constant 1.9463130000000e-04
END PERIOD  121

BEGIN PERIOD  122
  recharge
   constant 1.9476130000000e-04
END PERIOD  122

BEGIN PERIOD  123
  recharge
   constant 1.9486320000000e-04
END PERIOD  123

BEGIN PERIOD  124
  recharge
   constant 1.9493700000000e-04
END PERIOD  124

BEGIN PERIOD  125
  recharge
   constant 1.9498250000000e-04
END PERIOD  125

BEGIN PERIOD  126
  recharge
   constant 1.9499980000000e-04
END PERIOD  126

BEGIN PERIOD  127
  recharge
   constant 1.9498890000000e-04
END PERIOD  127

BEGIN PERIOD  128
  recharge
   constant 1.9494970000000e-04
END PERIOD  128

BEGIN PERIOD  129
  recharge
   constant 1.9488240000000e-04
END PERIOD  129

BEGIN PERIOD  130
  recharge
   constant 1.9478680000000e-04
END PERIOD  130

BEGIN PERIOD  131
  recharge
   constant 1.9466310000000e-04
END PERIOD  131

BEGIN PERIOD  132
  recharge
   constant 1.9451130000000e-04
END PERIOD  132

BEGIN PERIOD  133
  recharge
   constant 1.9433130000000e-04
END PERIOD  133

BEGIN PERIOD  134
  recharge
   constant 1.9412340000000e-04
END PERIOD  134

BEGIN PERIOD  135
  recharge
   constant 1.9388740000000e-04
END PERIOD  135

BEGIN PERIOD  136
  recharge
   constant 1.9362360000000e-04
END PERIOD  136

BEGIN PERIOD  137
  recharge
   constant 1.9333200000000e-04
END PERIOD  137

BEGIN PERIOD  138
  recharge
   constant 1.9301260000000e-04
END PERIOD  138

BEGIN PERIOD  139
  recharge
   constant 1.9266560000000e-04
END PERIOD  139

BEGIN PERIOD  140
  recharge
   constant 1.9229110000000e-04
END PERIOD  140

BEGIN PERIOD  141
  recharge
   constant 1.9188910000000e-04
END PERIOD  141

BEGIN PERIOD  142
  recharge
   constant 1.9145980000000e-04
END PERIOD  142

BEGIN PERIOD  143
  recharge
   constant 1.9100340000000e-04
END PERIOD  143

BEGIN PERIOD  144
  recharge
   constant 1.9051990000000e-04
END PERIOD  144

BEGIN PERIOD  145
  recharge
   constant 1.9000950000000e-04
END PERIOD  145

BEGIN PERIOD  146
  recharge
   constant 1.8947240000000e-04
END PERIOD  146

BEGIN PERIOD  147
  recharge
   constant 1.8890870000000e-04
END PERIOD  147

BEGIN PERIOD  148
  recharge
   constant 1.8831850000000e-04
END PERIOD  148

BEGIN PERIOD  149
  recharge
   constant 1.8770220000000e-04
END PERIOD  149

BEGIN PERIOD  150
  recharge
   constant 1.8705970000000e-04
END PERIOD  150

BEGIN PERIOD  151
  recharge
   constant 1.8639140000000e-04
END PERIOD  151

BEGIN PERIOD  152
  recharge
   constant 1.8569740000000e-04
END PERIOD  152

BEGIN PERIOD  153
  recharge
   constant 1.8497800000000e-04
END PERIOD  153

BEGIN PERIOD  154
  recharge
   constant 1.8423330000000e-04
END PERIOD  154

BEGIN PERIOD  155
  recharge
   constant 1.8346360000000e-04
END PERIOD  155

BEGIN PERIOD  156
  recharge
   constant 1.8266910000000e-04
END PERIOD  156

BEGIN PERIOD  157
  recharge
   constant 1.8185000000000e-04
END PERIOD  157

BEGIN PERIOD  158
  recharge
   constant 1.8100660000000e-04
END PERIOD  158

BEGIN PERIOD  159
  recharge
   constant 1.8013910000000e-04
END PERIOD  159

BEGIN PERIOD  160
  recharge
   constant 1.7924790000000e-04
END PERIOD  160

BEGIN PERIOD  161
  recharge
   constant 1.7833300000000e-04
END PERIOD  161

BEGIN PERIOD  162
  recharge
   constant 1.7739490000000e-04
END PERIOD  162

BEGIN PERIOD  163
  recharge
   constant 1.7643380000000e-04
END PERIOD  163

BEGIN PERIOD  164
  recharge
   constant 1.7545000000000e-04
END PERIOD  164

BEGIN PERIOD  165
  recharge
   constant 1.7444380000000e-04
END PERIOD  165

BEGIN PERIOD  166
  recharge
   constant 1.7341540000000e-04
END PERIOD  166

BEGIN PERIOD  167
  recharge
   constant 1.7236530000000e-04
END PERIOD  167

BEGIN PERIOD  168
  recharge
   constant 1.7129360000000e-04
END PERIOD  168

BEGIN PERIOD  169
  recharge
   constant 1.7020070000000e-04
END PERIOD  169

BEGIN PERIOD  170
  recharge
   constant 1.6908700000000e-04
END PERIOD  170

BEGIN PERIOD  171
  recharge
   constant 1.6795280000000e-04
END PERIOD  171

BEGIN PERIOD  172
  recharge
   constant 1.6679840000000e-04
END PERIOD  172

BEGIN PERIOD  173
  recharge
   constant 1.6562410000000e-04
END PERIOD  173

BEGIN PERIOD  174
  recharge
   constant 1.6443030000000e-04
END PERIOD  174

BEGIN PERIOD  175
  recharge
   constant 1.6321740000000e-04
END PERIOD  175

BEGIN PERIOD  176
  recharge
   constant 1.6198570000000e-04
END PERIOD  176

BEGIN PERIOD  177
  recharge
   constant 1.6073560000000e-04
END PERIOD  177

BEGIN PERIOD  178
  recharge
   constant 1.5946740000000e-04
END PERIOD  178

BEGIN PERIOD  179
  recharge
   constant 1.5818150000000e-04
END PERIOD  179

BEGIN PERIOD  180
  recharge
   constant 1.5687840000000e-04
END PERIOD  180

BEGIN PERIOD  181
  recharge
   constant 1.5555840000000e-04
END PERIOD  181

BEGIN PERIOD  182
  recharge
   constant 1.5422190000000e-04
END PERIOD  182

BEGIN PERIOD  183
  recharge
   constant 1.5286920000000e-04
END PERIOD  183

BEGIN PERIOD  184
  recharge
   constant 1.5150080000000e-04
END PERIOD  184

BEGIN PERIOD  185
  recharge
   constant 1.5011720000000e-04
END PERIOD  185

BEGIN PERIOD  186
  recharge
   constant 1.4871860000000e-04
END PERIOD  186

BEGIN PERIOD  187
  recharge
   constant 1.4730560000000e-04
END PERIOD  187

BEGIN PERIOD  188
  recharge
   constant 1.4587850000000e-04
END PERIOD  188

BEGIN PERIOD  189
  recharge
   constant 1.4443780000000e-04
END PERIOD  189

BEGIN PERIOD  190
  recharge
   constant 1.4298390000000e-04
END PERIOD  190

BEGIN PERIOD  191
  recharge
   constant 1.4151720000000e-04
END PERIOD  191

BEGIN PERIOD  192
  recharge
   constant 1.4003820000000e-04
END PERIOD  192

BEGIN PERIOD  193
  recharge
   constant 1.3854720000000e-04
END PERIOD  193

BEGIN PERIOD  194
  recharge
   constant 1.3704490000000e-04
END PERIOD  194

BEGIN PERIOD  195
  recharge
   constant 1.3553150000000e-04
END PERIOD  195

BEGIN PERIOD  196
  recharge
   constant 1.3400750000000e-04
END PERIOD  196

BEGIN PERIOD  197
  recharge
   constant 1.3247350000000e-04
END PERIOD  197

BEGIN PERIOD  198
  recharge
   constant 1.3092980000000e-04
END PERIOD  198

BEGIN PERIOD  199
  recharge
   constant 1.2937690000000e-04
END PERIOD  199

BEGIN PERIOD  200
  recharge
   constant 1.2781530000000e-04
END PERIOD  200

BEGIN PERIOD  201
  recharge
   constant 1.2624540000000e-04
END PERIOD  201

BEGIN PERIOD  202
  recharge
   constant 1.2466770000000e-04
END PERIOD  202

BEGIN PERIOD  203
  recharge
   constant 1.2308270000000e-04
END PERIOD  203

BEGIN PERIOD  204
  recharge
   constant 1.2149080000000e-04
END PERIOD  204

BEGIN PERIOD  205
  recharge
   constant 1.1989260000000e-04
END PERIOD  205

BEGIN PERIOD  206
  recharge
   constant 1.1828840000000e-04
END PERIOD  206

BEGIN PERIOD  207
  recharge
   constant 1.1667880000000e-04
END PERIOD  207

BEGIN PERIOD  208
  recharge
   constant 1.1506430000000e-04
END PERIOD  208

BEGIN PERIOD  209
  recharge
   constant 1.1344520000000e-04
END PERIOD  209

BEGIN PERIOD  210
  recharge
   constant 1.1182220000000e-04
END PERIOD  210

BEGIN PERIOD  211
  recharge
   constant 1.1019570000000e-04
END PERIOD  211

BEGIN PERIOD  212
  recharge
   constant 1.0856610000000e-04
END PERIOD  212

BEGIN PERIOD  213
  recharge
   constant 1.0693400000000e-04
END PERIOD  213

BEGIN PERIOD  214
  recharge
   constant 1.0529980000000e-04
END PERIOD  214

BEGIN PERIOD  215
  recharge
   constant 1.0366410000000e-04
END PERIOD  215

BEGIN PERIOD  216
  recharge
   constant 1.0202720000000e-04
END PERIOD  216

BEGIN PERIOD  217
  recharge
   constant 1.0038980000000e-04
END PERIOD  217

BEGIN PERIOD  218
  recharge
   constant 9.8752230000000e-05
END PERIOD  218

BEGIN PERIOD  219
  recharge
   constant 9.7115040000000e-05
END PERIOD  219

BEGIN PERIOD  220
  recharge
   constant 9.5478710000000e-05
END PERIOD  220

BEGIN PERIOD  221
  recharge
   constant 9.3843720000000e-05
END PERIOD  221

BEGIN PERIOD  222
  recharge
   constant 9.2210570000000e-05
END PERIOD  222

BEGIN PERIOD  223
  recharge
   constant 9.0579740000000e-05
END PERIOD  223

BEGIN PERIOD  224
  recharge
   constant 8.8951700000000e-05
END PERIOD  224

BEGIN PERIOD  225
  recharge
   constant 8.7326930000000e-05
END PERIOD  225

BEGIN PERIOD  226
  recharge
   constant 8.5705940000000e-05
END PERIOD  226

BEGIN PERIOD  227
  recharge
   constant 8.4089200000000e-05
END PERIOD  227

BEGIN PERIOD  228
  recharge
   constant 8.2477170000000e-05
END PERIOD  228

BEGIN PERIOD  229
  recharge
   constant 8.0870360000000e-05
END PERIOD  229

BEGIN PERIOD  230
  recharge
   constant 7.9269240000000e-05
END PERIOD  230

BEGIN PERIOD  231
  recharge
   constant 7.7674270000000e-05
END PERIOD  231

BEGIN PERIOD  232
  recharge
   constant 7.6085930000000e-05
END PERIOD  232

BEGIN PERIOD  233
  recharge
   constant 7.4504710000000e-05
END PERIOD  233

BEGIN PERIOD  234
  recharge
   constant 7.2931060000000e-05
END PERIOD  234

BEGIN PERIOD  235
  recharge
   constant 7.1365440000000e-05
END PERIOD  235

BEGIN PERIOD  236
  recharge
   constant 6.9808350000000e-05
END PERIOD  236

BEGIN PERIOD  237
  recharge
   constant 6.8260220000000e-05
END PERIOD  237

BEGIN PERIOD  238
  recharge
   constant 6.6721510000000e-05
END PERIOD  238

BEGIN PERIOD  239
  recharge
   constant 6.5192700000000e-05
END PERIOD  239

BEGIN PERIOD  240
  recharge
   constant 6.3674230000000e-05
END PERIOD  240

BEGIN PERIOD  241
  recharge
   constant 6.2166560000000e-05
END PERIOD  241

BEGIN PERIOD  242
  recharge
   constant 6.0670130000000e-05
END PERIOD  242

BEGIN PERIOD  243
  recharge
   constant 5.9185380000000e-05
END PERIOD  243

BEGIN PERIOD  244
  recharge
   constant 5.7712760000000e-05
END PERIOD  244

BEGIN PERIOD  245
  recharge
   constant 5.6252710000000e-05
END PERIOD  245

BEGIN PERIOD  246
  recharge
   constant 5.4805650000000e-05
END PERIOD  246

BEGIN PERIOD  247
  recharge
   constant 5.3372020000000e-05
END PERIOD  247

BEGIN PERIOD  248
  recharge
   constant 5.1952250000000e-05
END PERIOD  248

BEGIN PERIOD  249
  recharge
   constant 5.0546750000000e-05
END PERIOD  249

BEGIN PERIOD  250
  recharge
   constant 4.9155950000000e-05
END PERIOD  250

BEGIN PERIOD  251
  recharge
   constant 4.7780260000000e-05
END PERIOD  251

BEGIN PERIOD  252
  recharge
   constant 4.6420090000000e-05
END PERIOD  252

BEGIN PERIOD  253
  recharge
   constant 4.5075830000000e-05
END PERIOD  253

BEGIN PERIOD  254
  recharge
   constant 4.3747890000000e-05
END PERIOD  254

BEGIN PERIOD  255
  recharge
   constant 4.2436670000000e-05
END PERIOD  255

BEGIN PERIOD  256
  recharge
   constant 4.1142550000000e-05
END PERIOD  256

BEGIN PERIOD  257
  recharge
   constant 3.9865920000000e-05
END PERIOD  257

BEGIN PERIOD  258
  recharge
   constant 3.8607160000000e-05
END PERIOD  258

BEGIN PERIOD  259
  recharge
   constant 3.7366640000000e-05
END PERIOD  259

BEGIN PERIOD  260
  recharge
   constant 3.6144730000000e-05
END PERIOD  260

BEGIN PERIOD  261
  recharge
   constant 3.4941790000000e-05
END PERIOD  261

BEGIN PERIOD  262
  recharge
   constant 3.3758190000000e-05
END PERIOD  262

BEGIN PERIOD  263
  recharge
   constant 3.2594270000000e-05
END PERIOD  263

BEGIN PERIOD  264
  recharge
   constant 3.1450370000000e-05
END PERIOD  264

BEGIN PERIOD  265
  recharge
   constant 3.0326850000000e-05
END PERIOD  265

BEGIN PERIOD  266
  recharge
   constant 2.9224030000000e-05
END PERIOD  266

BEGIN PERIOD  267
  recharge
   constant 2.8142240000000e-05
END PERIOD  267

BEGIN PERIOD  268
  recharge
   constant 2.7081800000000e-05
END PERIOD  268

BEGIN PERIOD  269
  recharge
   constant 2.6043020000000e-05
END PERIOD  269

BEGIN PERIOD  270
  recharge
   constant 2.5026220000000e-05
END PERIOD  270

BEGIN PERIOD  271
  recharge
   constant 2.4031700000000e-05
END PERIOD  271

BEGIN PERIOD  272
  recharge
   constant 2.3059750000000e-05
END PERIOD  272

BEGIN PERIOD  273
  recharge
   constant 2.2110660000000e-05
END PERIOD  273

BEGIN PERIOD  274
  recharge
   constant 2.1184720000000e-05
END PERIOD  274

BEGIN PERIOD  275
  recharge
   constant 2.0282200000000e-05
END PERIOD  275

BEGIN PERIOD  276
  recharge
   constant 1.9403360000000e-05
END PERIOD  276

BEGIN PERIOD  277
  recharge
   constant 1.8548470000000e-05
END PERIOD  277

BEGIN PERIOD  278
  recharge
   constant 1.7717780000000e-05
END PERIOD  278

BEGIN PERIOD  279
  recharge
   constant 1.6911540000000e-05
END PERIOD  279

BEGIN PERIOD  280
  recharge
   constant 1.6129990000000e-05
END PERIOD  280

BEGIN PERIOD  281
  recharge
   constant 1.5373360000000e-05
END PERIOD  281

BEGIN PERIOD  282
  recharge
   constant 1.4641880000000e-05
END PERIOD  282

BEGIN PERIOD  283
  recharge
   constant 1.3935760000000e-05
END PERIOD  283

BEGIN PERIOD  284
  recharge
   constant 1.3255210000000e-05
END PERIOD  284

BEGIN PERIOD  285
  recharge
   constant 1.2600440000000e-05
END PERIOD  285

BEGIN PERIOD  286
  recharge
   constant 1.1971630000000e-05
END PERIOD  286

BEGIN PERIOD  287
  recharge
   constant 1.1368980000000e-05
END PERIOD  287

BEGIN PERIOD  288
  recharge
   constant 1.0792670000000e-05
END PERIOD  288

BEGIN PERIOD  289
  recharge
   constant 1.0242870000000e-05
END PERIOD  289

BEGIN PERIOD  290
  recharge
   constant 9.7197330000000e-06
END PERIOD  290

BEGIN PERIOD  291
  recharge
   constant 9.2234220000000e-06
END PERIOD  291

BEGIN PERIOD  292
  recharge
   constant 8.7540850000000e-06
END PERIOD  292

BEGIN PERIOD  293
  recharge
   constant 8.3118600000000e-06
END PERIOD  293

BEGIN PERIOD  294
  recharge
   constant 7.8968790000000e-06
END PERIOD  294

BEGIN PERIOD  295
  recharge
   constant 7.5092650000000e-06
END PERIOD  295

BEGIN PERIOD  296
  recharge
   constant 7.1491330000000e-06
END PERIOD  296

BEGIN PERIOD  297
  recharge
   constant 6.8165900000000e-06
END PERIOD  297

BEGIN PERIOD  298
  recharge
   constant 6.5117360000000e-06
END PERIOD  298

BEGIN PERIOD  299
  recharge
   constant 6.2346600000000e-06
END PERIOD  299

BEGIN PERIOD  300
  recharge
   constant 5.9854460000000e-06
END PERIOD  300

BEGIN PERIOD  301
  recharge
   constant 5.7641660000000e-06
END PERIOD  301

BEGIN PERIOD  302
  recharge
   constant 5.5708870000000e-06
END PERIOD  302

BEGIN PERIOD  303
  recharge
   constant 5.4056650000000e-06
END PERIOD  303

BEGIN PERIOD  304
  recharge
   constant 5.2685520000000e-06
END PERIOD  304

BEGIN PERIOD  305
  recharge
   constant 5.1595870000000e-06
END PERIOD  305

BEGIN PERIOD  306
  recharge
   constant 5.0788010000000e-06
END PERIOD  306

BEGIN PERIOD  307
  recharge
   constant 5.0262210000000e-06
END PERIOD  307

BEGIN PERIOD  308
  recharge
   constant 5.0018600000000e-06
END PERIOD  308

BEGIN PERIOD  309
  recharge
   constant 5.0057270000000e-06
END PERIOD  309

BEGIN PERIOD  310
  recharge
   constant 5.0378190000000e-06
END PERIOD  310

BEGIN PERIOD  311
  recharge
   constant 5.0981280000000e-06
END PERIOD  311

BEGIN PERIOD  312
  recharge
   constant 5.1866370000000e-06
END PERIOD  312

BEGIN PERIOD  313
  recharge
   constant 5.3033170000000e-06
END PERIOD  313

BEGIN PERIOD  314
  recharge
   constant 5.4481350000000e-06
END PERIOD  314

BEGIN PERIOD  315
  recharge
   constant 5.6210480000000e-06
END PERIOD  315

BEGIN PERIOD  316
  recharge
   constant 5.8220040000000e-06
END PERIOD  316

BEGIN PERIOD  317
  recharge
   constant 6.0509430000000e-06
END PERIOD  317

BEGIN PERIOD  318
  recharge
   constant 6.3077990000000e-06
END PERIOD  318

BEGIN PERIOD  319
  recharge
   constant 6.5924930000000e-06
END PERIOD  319

BEGIN PERIOD  320
  recharge
   constant 6.9049420000000e-06
END PERIOD  320

BEGIN PERIOD  321
  recharge
   constant 7.2450530000000e-06
END PERIOD  321

BEGIN PERIOD  322
  recharge
   constant 7.6127240000000e-06
END PERIOD  322

BEGIN PERIOD  323
  recharge
   constant 8.0078480000000e-06
END PERIOD  323

BEGIN PERIOD  324
  recharge
   constant 8.4303050000000e-06
END PERIOD  324

BEGIN PERIOD  325
  recharge
   constant 8.8799710000000e-06
END PERIOD  325

BEGIN PERIOD  326
  recharge
   constant 9.3567110000000e-06
END PERIOD  326

BEGIN PERIOD  327
  recharge
   constant 9.8603860000000e-06
END PERIOD  327

BEGIN PERIOD  328
  recharge
   constant 1.0390840000000e-05
END PERIOD  328

BEGIN PERIOD  329
  recharge
   constant 1.0947930000000e-05
END PERIOD  329

BEGIN PERIOD  330
  recharge
   constant 1.1531470000000e-05
END PERIOD  330

BEGIN PERIOD  331
  recharge
   constant 1.2141300000000e-05
END PERIOD  331

BEGIN PERIOD  332
  recharge
   constant 1.2777240000000e-05
END PERIOD  332

BEGIN PERIOD  333
  recharge
   constant 1.3439090000000e-05
END PERIOD  333

BEGIN PERIOD  334
  recharge
   constant 1.4126670000000e-05
END PERIOD  334

BEGIN PERIOD  335
  recharge
   constant 1.4839760000000e-05
END PERIOD  335

BEGIN PERIOD  336
  recharge
   constant 1.5578150000000e-05
END PERIOD  336

BEGIN PERIOD  337
  recharge
   constant 1.6341630000000e-05
END PERIOD  337

BEGIN PERIOD  338
  recharge
   constant 1.7129970000000e-05
END PERIOD  338

BEGIN PERIOD  339
  recharge
   constant 1.7942930000000e-05
END PERIOD  339

BEGIN PERIOD  340
  recharge
   constant 1.8780270000000e-05
END PERIOD  340

BEGIN PERIOD  341
  recharge
   constant 1.9641750000000e-05
END PERIOD  341

BEGIN PERIOD  342
  recharge
   constant 2.0527100000000e-05
END PERIOD  342

BEGIN PERIOD  343
  recharge
   constant 2.1436070000000e-05
END PERIOD  343

BEGIN PERIOD  344
  recharge
   constant 2.2368380000000e-05
END PERIOD  344

BEGIN PERIOD  345
  recharge
   constant 2.3323760000000e-05
END PERIOD  345

BEGIN PERIOD  346
  recharge
   constant 2.4301920000000e-05
END PERIOD  346

BEGIN PERIOD  347
  recharge
   constant 2.5302570000000e-05
END PERIOD  347

BEGIN PERIOD  348
  recharge
   constant 2.6325420000000e-05
END PERIOD  348

BEGIN PERIOD  349
  recharge
   constant 2.7370170000000e-05
END PERIOD  349

BEGIN PERIOD  350
  recharge
   constant 2.8436490000000e-05
END PERIOD  350

BEGIN PERIOD  351
  recharge
   constant 2.9524070000000e-05
END PERIOD  351

BEGIN PERIOD  352
  recharge
   constant 3.0632600000000e-05
END PERIOD  352

BEGIN PERIOD  353
  recharge
   constant 3.1761740000000e-05
END PERIOD  353

BEGIN PERIOD  354
  recharge
   constant 3.2911150000000e-05
END PERIOD  354

BEGIN PERIOD  355
  recharge
   constant 3.4080500000000e-05
END PERIOD  355

BEGIN PERIOD  356
  recharge
   constant 3.5269440000000e-05
END PERIOD  356

BEGIN PERIOD  357
  recharge
   constant 3.6477600000000e-05
END PERIOD  357

BEGIN PERIOD  358
  recharge
   constant 3.7704650000000e-05
END PERIOD  358

BEGIN PERIOD  359
  recharge
   constant 3.8950200000000e-05
END PERIOD  359

BEGIN PERIOD  360
  recharge
   constant 4.0213900000000e-05
END PERIOD  360

BEGIN PERIOD  361
  recharge
   constant 4.1495350000000e-05
END PERIOD  361

BEGIN PERIOD  362
  recharge
   constant 4.2794200000000e-05
END PERIOD  362

BEGIN PERIOD  363
  recharge
   constant 4.4110040000000e-05
END PERIOD  363

BEGIN PERIOD  364
  recharge
   constant 4.5442480000000e-05
END PERIOD  364

BEGIN PERIOD  365
  recharge
   constant 4.6791140000000e-05
END PERIOD  365

BEGIN PERIOD  366
  recharge
   constant 4.8155610000000e-05
END PERIOD  366

BEGIN PERIOD  367
  recharge
   constant 4.9535480000000e-05
END PERIOD  367

BEGIN PERIOD  368
  recharge
   constant 5.0930350000000e-05
END PERIOD  368

BEGIN PERIOD  369
  recharge
   constant 5.2339800000000e-05
END PERIOD  369

BEGIN PERIOD  370
  recharge
   constant 5.3763410000000e-05
END PERIOD  370

BEGIN PERIOD  371
  recharge
   constant 5.5200760000000e-05
END PERIOD  371

BEGIN PERIOD  372
  recharge
   constant 5.6651420000000e-05
END PERIOD  372

BEGIN PERIOD  373
  recharge
   constant 5.8114960000000e-05
END PERIOD  373

BEGIN PERIOD  374
  recharge
   constant 5.9590940000000e-05
END PERIOD  374

BEGIN PERIOD  375
  recharge
   constant 6.1078940000000e-05
END PERIOD  375

BEGIN PERIOD  376
  recharge
   constant 6.2578490000000e-05
END PERIOD  376

BEGIN PERIOD  377
  recharge
   constant 6.4089170000000e-05
END PERIOD  377

BEGIN PERIOD  378
  recharge
   constant 6.5610510000000e-05
END PERIOD  378

BEGIN PERIOD  379
  recharge
   constant 6.7142080000000e-05
END PERIOD  379

BEGIN PERIOD  380
  recharge
   constant 6.8683410000000e-05
END PERIOD  380

BEGIN PERIOD  381
  recharge
   constant 7.0234040000000e-05
END PERIOD  381

BEGIN PERIOD  382
  recharge
   constant 7.1793520000000e-05
END PERIOD  382

BEGIN PERIOD  383
  recharge
   constant 7.3361390000000e-05
END PERIOD  383

BEGIN PERIOD  384
  recharge
   constant 7.4937150000000e-05
END PERIOD  384

BEGIN PERIOD  385
  recharge
   constant 7.6520370000000e-05
END PERIOD  385

BEGIN PERIOD  386
  recharge
   constant 7.8110580000000e-05
END PERIOD  386

BEGIN PERIOD  387
  recharge
   constant 7.9707270000000e-05
END PERIOD  387

BEGIN PERIOD  388
  recharge
   constant 8.1310010000000e-05
END PERIOD  388

BEGIN PERIOD  389
  recharge
   constant 8.2918300000000e-05
END PERIOD  389
