pcf
* control data
             restart          estimation
      8175      1025        12        25        41         0
        14         3              single               point         1         0         0          noobsreref
   2.000000E+01  -3.000000E+00   3.000000E-01   1.000000E-02        -7       999          lamforgive        noderforgive
   1.000000E+01   1.000000E+01   1.000000E-03         0         0
   1.000000E-01         1   1.100000E+00               noaui          nosenreuse        noboundscale
         1   1.000000E-02         3         3   1.000000E-02         3   0.000000E+00         1  -1.000000E+00
         0         0         0         0             jcosave          verboserec          jcosaveitn          reisaveitn          parsaveitn        noparsaverun
* singular value decomposition
         1
  10000000    1.000000E-06
1
* parameter groups
 welflux                 absolute              1.0000000000E+02       0.0  switch                2.0000000000E+00       parabolic             1.0000000000E-05      5.0000000000E-01       smaller              
 sto_ss_1                relative              1.0000000000E-02       0.0  switch                2.0000000000E+00       parabolic             1.0000000000E-05      5.0000000000E-01       smaller              
 npf_k_0                 relative              1.0000000000E-02       0.0  switch                2.0000000000E+00       parabolic             1.0000000000E-05      5.0000000000E-01       smaller              
 sto_ss_0                relative              1.0000000000E-02       0.0  switch                2.0000000000E+00       parabolic             1.0000000000E-05      5.0000000000E-01       smaller              
 npf_k_2                 relative              1.0000000000E-02       0.0  switch                2.0000000000E+00       parabolic             1.0000000000E-05      5.0000000000E-01       smaller              
 sto_sy_0                relative              1.0000000000E-02       0.0  switch                2.0000000000E+00       parabolic             1.0000000000E-05      5.0000000000E-01       smaller              
 npf_k_1                 relative              1.0000000000E-02       0.0  switch                2.0000000000E+00       parabolic             1.0000000000E-05      5.0000000000E-01       smaller              
 npf_k33_0               relative              1.0000000000E-02       0.0  switch                2.0000000000E+00       parabolic             1.0000000000E-05      5.0000000000E-01       smaller              
 sto_ss_2                relative              1.0000000000E-02       0.0  switch                2.0000000000E+00       parabolic             1.0000000000E-05      5.0000000000E-01       smaller              
 npf_k33_2               relative              1.0000000000E-02       0.0  switch                2.0000000000E+00       parabolic             1.0000000000E-05      5.0000000000E-01       smaller              
 npf_k33_1               relative              1.0000000000E-02       0.0  switch                2.0000000000E+00       parabolic             1.0000000000E-05      5.0000000000E-01       smaller              
 rch                     relative              1.0000000000E-02       0.0  switch                2.0000000000E+00       parabolic             1.0000000000E-05      5.0000000000E-01       smaller              
* parameter data
 npf_k33_0_000_000      log                    factor                3.0000000000E-01      3.0000000000E-02      3.0000000000E+00       npf_k33_0             1.0000000000E+00      0.0000000000E+00      1          
 npf_k33_0_000_001      log                    factor                3.0000000000E-01      3.0000000000E-02      3.0000000000E+00       npf_k33_0             1.0000000000E+00      0.0000000000E+00      1          
 npf_k33_0_000_002      log                    factor                3.0000000000E-01      3.0000000000E-02      3.0000000000E+00       npf_k33_0             1.0000000000E+00      0.0000000000E+00      1          
 npf_k33_0_000_003      log                    factor                3.0000000000E-01      3.0000000000E-02      3.0000000000E+00       npf_k33_0             1.0000000000E+00      0.0000000000E+00      1          
 npf_k33_0_000_004      log                    factor                3.0000000000E-01      3.0000000000E-02      3.0000000000E+00       npf_k33_0             1.0000000000E+00      0.0000000000E+00      1          
 npf_k33_0_000_005      log                    factor                3.0000000000E-01      3.0000000000E-02      3.0000000000E+00       npf_k33_0             1.0000000000E+00      0.0000000000E+00      1          
 npf_k33_0_000_006      log                    factor                3.0000000000E-01      3.0000000000E-02      3.0000000000E+00       npf_k33_0             1.0000000000E+00      0.0000000000E+00      1          
 npf_k33_0_000_007      log                    factor                3.0000000000E-01      3.0000000000E-02      3.0000000000E+00       npf_k33_0             1.0000000000E+00      0.0000000000E+00      1          
 npf_k33_0_000_008      log                    factor                3.0000000000E-01      3.0000000000E-02      3.0000000000E+00       npf_k33_0             1.0000000000E+00      0.0000000000E+00      1          
 npf_k33_0_000_009      log                    factor                3.0000000000E-01      3.0000000000E-02      3.0000000000E+00       npf_k33_0             1.0000000000E+00      0.0000000000E+00      1          
 npf_k33_0_000_010      log                    factor                3.0000000000E-01      3.0000000000E-02      3.0000000000E+00       npf_k33_0             1.0000000000E+00      0.0000000000E+00      1          
 npf_k33_0_000_011      log                    factor                3.0000000000E-01      3.0000000000E-02      3.0000000000E+00       npf_k33_0             1.0000000000E+00      0.0000000000E+00      1          
 npf_k33_0_000_012      log                    factor                3.0000000000E-01      3.0000000000E-02      3.0000000000E+00       npf_k33_0             1.0000000000E+00      0.0000000000E+00      1          
 npf_k33_0_000_013      log                    factor                3.0000000000E-01      3.0000000000E-02      3.0000000000E+00       npf_k33_0             1.0000000000E+00      0.0000000000E+00      1          
 npf_k33_0_000_014      log                    factor                3.0000000000E-01      3.0000000000E-02      3.0000000000E+00       npf_k33_0             1.0000000000E+00      0.0000000000E+00      1          
 npf_k33_0_000_015      log                    factor                3.0000000000E-01      3.0000000000E-02      3.0000000000E+00       npf_k33_0             1.0000000000E+00      0.0000000000E+00      1          
 npf_k33_0_000_016      log                    factor                3.0000000000E-01      3.0000000000E-02      3.0000000000E+00       npf_k33_0             1.0000000000E+00      0.0000000000E+00      1          
 npf_k33_0_000_017      log                    factor                3.0000000000E-01      3.0000000000E-02      3.0000000000E+00       npf_k33_0             1.0000000000E+00      0.0000000000E+00      1          
 npf_k33_0_000_018      log                    factor                3.0000000000E-01      3.0000000000E-02      3.0000000000E+00       npf_k33_0             1.0000000000E+00      0.0000000000E+00      1          
 npf_k33_0_000_019      log                    factor                3.0000000000E-01      3.0000000000E-02      3.0000000000E+00       npf_k33_0             1.0000000000E+00      0.0000000000E+00      1          
 npf_k33_0_001_000      log                    factor                3.0000000000E-01      3.0000000000E-02      3.0000000000E+00       npf_k33_0             1.0000000000E+00      0.0000000000E+00      1          
 npf_k33_0_001_001      log                    factor                3.0000000000E-01      3.0000000000E-02      3.0000000000E+00       npf_k33_0             1.0000000000E+00      0.0000000000E+00      1          
 npf_k33_0_001_002      log                    factor                3.0000000000E-01      3.0000000000E-02      3.0000000000E+00       npf_k33_0             1.0000000000E+00      0.0000000000E+00      1          
 npf_k33_0_001_003      log                    factor                3.0000000000E-01      3.0000000000E-02      3.0000000000E+00       npf_k33_0             1.0000000000E+00      0.0000000000E+00      1          
 npf_k33_0_001_004      log                    factor                3.0000000000E-01      3.0000000000E-02      3.0000000000E+00       npf_k33_0             1.0000000000E+00      0.0000000000E+00      1          
 npf_k33_0_001_005      log                    factor                3.0000000000E-01      3.0000000000E-02      3.0000000000E+00       npf_k33_0             1.0000000000E+00      0.0000000000E+00      1          
 npf_k33_0_001_006      log                    factor                3.0000000000E-01      3.0000000000E-02      3.0000000000E+00       npf_k33_0             1.0000000000E+00      0.0000000000E+00      1          
 npf_k33_0_001_007      log                    factor                3.0000000000E-01      3.0000000000E-02      3.0000000000E+00       npf_k33_0             1.0000000000E+00      0.0000000000E+00      1          
 npf_k33_0_001_008      log                    factor                3.0000000000E-01      3.0000000000E-02      3.0000000000E+00       npf_k33_0             1.0000000000E+00      0.0000000000E+00      1          
 npf_k33_0_001_009      log                    factor                3.0000000000E-01      3.0000000000E-02      3.0000000000E+00       npf_k33_0             1.0000000000E+00      0.0000000000E+00      1          
 npf_k33_0_001_010      log                    factor                3.0000000000E-01      3.0000000000E-02      3.0000000000E+00       npf_k33_0             1.0000000000E+00      0.0000000000E+00      1          
 npf_k33_0_001_011      log                    factor                3.0000000000E-01      3.0000000000E-02      3.0000000000E+00       npf_k33_0             1.0000000000E+00      0.0000000000E+00      1          
 npf_k33_0_001_012      log                    factor                3.0000000000E-01      3.0000000000E-02      3.0000000000E+00       npf_k33_0             1.0000000000E+00      0.0000000000E+00      1          
 npf_k33_0_001_013      log                    factor                3.0000000000E-01      3.0000000000E-02      3.0000000000E+00       npf_k33_0             1.0000000000E+00      0.0000000000E+00      1          
 npf_k33_0_001_014      log                    factor                3.0000000000E-01      3.0000000000E-02      3.0000000000E+00       npf_k33_0             1.0000000000E+00      0.0000000000E+00      1          
 npf_k33_0_001_015      log                    factor                3.0000000000E-01      3.0000000000E-02      3.0000000000E+00       npf_k33_0             1.0000000000E+00      0.0000000000E+00      1          
 npf_k33_0_001_016      log                    factor                3.0000000000E-01      3.0000000000E-02      3.0000000000E+00       npf_k33_0             1.0000000000E+00      0.0000000000E+00      1          
 npf_k33_0_001_017      log                    factor                3.0000000000E-01      3.0000000000E-02      3.0000000000E+00       npf_k33_0             1.0000000000E+00      0.0000000000E+00      1          
 npf_k33_0_001_018      log                    factor                3.0000000000E-01      3.0000000000E-02      3.0000000000E+00       npf_k33_0             1.0000000000E+00      0.0000000000E+00      1          
 npf_k33_0_001_019      log                    factor                3.0000000000E-01      3.0000000000E-02      3.0000000000E+00       npf_k33_0             1.0000000000E+00      0.0000000000E+00      1          
 npf_k33_0_002_000      log                    factor                3.0000000000E-01      3.0000000000E-02      3.0000000000E+00       npf_k33_0             1.0000000000E+00      0.0000000000E+00      1          
 npf_k33_0_002_001      log                    factor                3.0000000000E-01      3.0000000000E-02      3.0000000000E+00       npf_k33_0             1.0000000000E+00      0.0000000000E+00      1          
 npf_k33_0_002_002      log                    factor                3.0000000000E-01      3.0000000000E-02      3.0000000000E+00       npf_k33_0             1.0000000000E+00      0.0000000000E+00      1          
 npf_k33_0_002_003      log                    factor                3.0000000000E-01      3.0000000000E-02      3.0000000000E+00       npf_k33_0             1.0000000000E+00      0.0000000000E+00      1          
 npf_k33_0_002_004      log                    factor                3.0000000000E-01      3.0000000000E-02      3.0000000000E+00       npf_k33_0             1.0000000000E+00      0.0000000000E+00      1          
 npf_k33_0_002_005      log                    factor                3.0000000000E-01      3.0000000000E-02      3.0000000000E+00       npf_k33_0             1.0000000000E+00      0.0000000000E+00      1          
 npf_k33_0_002_006      log                    factor                3.0000000000E-01      3.0000000000E-02      3.0000000000E+00       npf_k33_0             1.0000000000E+00      0.0000000000E+00      1          
 npf_k33_0_002_007      log                    factor                3.0000000000E-01      3.0000000000E-02      3.0000000000E+00       npf_k33_0             1.0000000000E+00      0.0000000000E+00      1          
 npf_k33_0_002_008      log                    factor                3.0000000000E-01      3.0000000000E-02      3.0000000000E+00       npf_k33_0             1.0000000000E+00      0.0000000000E+00      1          
 npf_k33_0_002_009      log                    factor                3.0000000000E-01      3.0000000000E-02      3.0000000000E+00       npf_k33_0             1.0000000000E+00      0.0000000000E+00      1          
 npf_k33_0_002_010      log                    factor                3.0000000000E-01      3.0000000000E-02      3.0000000000E+00       npf_k33_0             1.0000000000E+00      0.0000000000E+00      1          
 npf_k33_0_002_011      log                    factor                3.0000000000E-01      3.0000000000E-02      3.0000000000E+00       npf_k33_0             1.0000000000E+00      0.0000000000E+00      1          
 npf_k33_0_002_012      log                    factor                3.0000000000E-01      3.0000000000E-02      3.0000000000E+00       npf_k33_0             1.0000000000E+00      0.0000000000E+00      1          
 npf_k33_0_002_013      log                    factor                3.0000000000E-01      3.0000000000E-02      3.0000000000E+00       npf_k33_0             1.0000000000E+00      0.0000000000E+00      1          
 npf_k33_0_002_014      log                    factor                3.0000000000E-01      3.0000000000E-02      3.0000000000E+00       npf_k33_0             1.0000000000E+00      0.0000000000E+00      1          
 npf_k33_0_002_015      log                    factor                3.0000000000E-01      3.0000000000E-02      3.0000000000E+00       npf_k33_0             1.0000000000E+00      0.0000000000E+00      1          
 npf_k33_0_002_016      log                    factor                3.0000000000E-01      3.0000000000E-02      3.0000000000E+00       npf_k33_0             1.0000000000E+00      0.0000000000E+00      1          
 npf_k33_0_002_017      log                    factor                3.0000000000E-01      3.0000000000E-02      3.0000000000E+00       npf_k33_0             1.0000000000E+00      0.0000000000E+00      1          
 npf_k33_0_002_018      log                    factor                3.0000000000E-01      3.0000000000E-02      3.0000000000E+00       npf_k33_0             1.0000000000E+00      0.0000000000E+00      1          
 npf_k33_0_002_019      log                    factor                3.0000000000E-01      3.0000000000E-02      3.0000000000E+00       npf_k33_0             1.0000000000E+00      0.0000000000E+00      1          
 npf_k33_0_003_000      log                    factor                3.0000000000E-01      3.0000000000E-02      3.0000000000E+00       npf_k33_0             1.0000000000E+00      0.0000000000E+00      1          
 npf_k33_0_003_001      log                    factor                3.0000000000E-01      3.0000000000E-02      3.0000000000E+00       npf_k33_0             1.0000000000E+00      0.0000000000E+00      1          
 npf_k33_0_003_002      log                    factor                3.0000000000E-01      3.0000000000E-02      3.0000000000E+00       npf_k33_0             1.0000000000E+00      0.0000000000E+00      1          
 npf_k33_0_003_003      log                    factor                3.0000000000E-01      3.0000000000E-02      3.0000000000E+00       npf_k33_0             1.0000000000E+00      0.0000000000E+00      1          
 npf_k33_0_003_004      log                    factor                3.0000000000E-01      3.0000000000E-02      3.0000000000E+00       npf_k33_0             1.0000000000E+00      0.0000000000E+00      1          
 npf_k33_0_003_005      log                    factor                3.0000000000E-01      3.0000000000E-02      3.0000000000E+00       npf_k33_0             1.0000000000E+00      0.0000000000E+00      1          
 npf_k33_0_003_006      log                    factor                3.0000000000E-01      3.0000000000E-02      3.0000000000E+00       npf_k33_0             1.0000000000E+00      0.0000000000E+00      1          
 npf_k33_0_003_007      log                    factor                3.0000000000E-01      3.0000000000E-02      3.0000000000E+00       npf_k33_0             1.0000000000E+00      0.0000000000E+00      1          
 npf_k33_0_003_008      log                    factor                3.0000000000E-01      3.0000000000E-02      3.0000000000E+00       npf_k33_0             1.0000000000E+00      0.0000000000E+00      1          
 npf_k33_0_003_009      log                    factor                3.0000000000E-01      3.0000000000E-02      3.0000000000E+00       npf_k33_0             1.0000000000E+00      0.0000000000E+00      1          
 npf_k33_0_003_010      log                    factor                3.0000000000E-01      3.0000000000E-02      3.0000000000E+00       npf_k33_0             1.0000000000E+00      0.0000000000E+00      1          
 npf_k33_0_003_011      log                    factor                3.0000000000E-01      3.0000000000E-02      3.0000000000E+00       npf_k33_0             1.0000000000E+00      0.0000000000E+00      1          
 npf_k33_0_003_012      log                    factor                3.0000000000E-01      3.0000000000E-02      3.0000000000E+00       npf_k33_0             1.0000000000E+00      0.0000000000E+00      1          
 npf_k33_0_003_013      log                    factor                3.0000000000E-01      3.0000000000E-02      3.0000000000E+00       npf_k33_0             1.0000000000E+00      0.0000000000E+00      1          
 npf_k33_0_003_014      log                    factor                3.0000000000E-01      3.0000000000E-02      3.0000000000E+00       npf_k33_0             1.0000000000E+00      0.0000000000E+00      1          
 npf_k33_0_003_015      log                    factor                3.0000000000E-01      3.0000000000E-02      3.0000000000E+00       npf_k33_0             1.0000000000E+00      0.0000000000E+00      1          
 npf_k33_0_003_016      log                    factor                3.0000000000E-01      3.0000000000E-02      3.0000000000E+00       npf_k33_0             1.0000000000E+00      0.0000000000E+00      1          
 npf_k33_0_003_017      log                    factor                3.0000000000E-01      3.0000000000E-02      3.0000000000E+00       npf_k33_0             1.0000000000E+00      0.0000000000E+00      1          
 npf_k33_0_003_018      log                    factor                3.0000000000E-01      3.0000000000E-02      3.0000000000E+00       npf_k33_0             1.0000000000E+00      0.0000000000E+00      1          
 npf_k33_0_003_019      log                    factor                3.0000000000E-01      3.0000000000E-02      3.0000000000E+00       npf_k33_0             1.0000000000E+00      0.0000000000E+00      1          
 npf_k33_0_004_000      log                    factor                3.0000000000E-01      3.0000000000E-02      3.0000000000E+00       npf_k33_0             1.0000000000E+00      0.0000000000E+00      1          
 npf_k33_0_004_001      log                    factor                3.0000000000E-01      3.0000000000E-02      3.0000000000E+00       npf_k33_0             1.0000000000E+00      0.0000000000E+00      1          
 npf_k33_0_004_002      log                    factor                3.0000000000E-01      3.0000000000E-02      3.0000000000E+00       npf_k33_0             1.0000000000E+00      0.0000000000E+00      1          
 npf_k33_0_004_003      log                    factor                3.0000000000E-01      3.0000000000E-02      3.0000000000E+00       npf_k33_0             1.0000000000E+00      0.0000000000E+00      1          
 npf_k33_0_004_004      log                    factor                3.0000000000E-01      3.0000000000E-02      3.0000000000E+00       npf_k33_0             1.0000000000E+00      0.0000000000E+00      1          
 npf_k33_0_004_005      log                    factor                3.0000000000E-01      3.0000000000E-02      3.0000000000E+00       npf_k33_0             1.0000000000E+00      0.0000000000E+00      1          
 npf_k33_0_004_006      log                    factor                3.0000000000E-01      3.0000000000E-02      3.0000000000E+00       npf_k33_0             1.0000000000E+00      0.0000000000E+00      1          
 npf_k33_0_004_007      log                    factor                3.0000000000E-01      3.0000000000E-02      3.0000000000E+00       npf_k33_0             1.0000000000E+00      0.0000000000E+00      1          
 npf_k33_0_004_008      log                    factor                3.0000000000E-01      3.0000000000E-02      3.0000000000E+00       npf_k33_0             1.0000000000E+00      0.0000000000E+00      1          
 npf_k33_0_004_009      log                    factor                3.0000000000E-01      3.0000000000E-02      3.0000000000E+00       npf_k33_0             1.0000000000E+00      0.0000000000E+00      1          
 npf_k33_0_004_010      log                    factor                3.0000000000E-01      3.0000000000E-02      3.0000000000E+00       npf_k33_0             1.0000000000E+00      0.0000000000E+00      1          
 npf_k33_0_004_011      log                    factor                3.0000000000E-01      3.0000000000E-02      3.0000000000E+00       npf_k33_0             1.0000000000E+00      0.0000000000E+00      1          
 npf_k33_0_004_012      log                    factor                3.0000000000E-01      3.0000000000E-02      3.0000000000E+00       npf_k33_0             1.0000000000E+00      0.0000000000E+00      1          
 npf_k33_0_004_013      log                    factor                3.0000000000E-01      3.0000000000E-02      3.0000000000E+00       npf_k33_0             1.0000000000E+00      0.0000000000E+00      1          
 npf_k33_0_004_014      log                    factor                3.0000000000E-01      3.0000000000E-02      3.0000000000E+00       npf_k33_0             1.0000000000E+00      0.0000000000E+00      1          
 npf_k33_0_004_015      log                    factor                3.0000000000E-01      3.0000000000E-02      3.0000000000E+00       npf_k33_0             1.0000000000E+00      0.0000000000E+00      1          
 npf_k33_0_004_016      log                    factor                3.0000000000E-01      3.0000000000E-02      3.0000000000E+00       npf_k33_0             1.0000000000E+00      0.0000000000E+00      1          
 npf_k33_0_004_017      log                    factor                3.0000000000E-01      3.0000000000E-02      3.0000000000E+00       npf_k33_0             1.0000000000E+00      0.0000000000E+00      1          
 npf_k33_0_004_018      log                    factor                3.0000000000E-01      3.0000000000E-02      3.0000000000E+00       npf_k33_0             1.0000000000E+00      0.0000000000E+00      1          
 npf_k33_0_004_019      log                    factor                3.0000000000E-01      3.0000000000E-02      3.0000000000E+00       npf_k33_0             1.0000000000E+00      0.0000000000E+00      1          
 npf_k33_0_005_000      log                    factor                3.0000000000E-01      3.0000000000E-02      3.0000000000E+00       npf_k33_0             1.0000000000E+00      0.0000000000E+00      1          
 npf_k33_0_005_001      log                    factor                3.0000000000E-01      3.0000000000E-02      3.0000000000E+00       npf_k33_0             1.0000000000E+00      0.0000000000E+00      1          
 npf_k33_0_005_002      log                    factor                3.0000000000E-01      3.0000000000E-02      3.0000000000E+00       npf_k33_0             1.0000000000E+00      0.0000000000E+00      1          
 npf_k33_0_005_003      log                    factor                3.0000000000E-01      3.0000000000E-02      3.0000000000E+00       npf_k33_0             1.0000000000E+00      0.0000000000E+00      1          
 npf_k33_0_005_004      log                    factor                3.0000000000E-01      3.0000000000E-02      3.0000000000E+00       npf_k33_0             1.0000000000E+00      0.0000000000E+00      1          
 npf_k33_0_005_005      log                    factor                3.0000000000E-01      3.0000000000E-02      3.0000000000E+00       npf_k33_0             1.0000000000E+00      0.0000000000E+00      1          
 npf_k33_0_005_006      log                    factor                3.0000000000E-01      3.0000000000E-02      3.0000000000E+00       npf_k33_0             1.0000000000E+00      0.0000000000E+00      1          
 npf_k33_0_005_007      log                    factor                3.0000000000E-01      3.0000000000E-02      3.0000000000E+00       npf_k33_0             1.0000000000E+00      0.0000000000E+00      1          
 npf_k33_0_005_008      log                    factor                3.0000000000E-01      3.0000000000E-02      3.0000000000E+00       npf_k33_0             1.0000000000E+00      0.0000000000E+00      1          
 npf_k33_0_005_009      log                    factor                3.0000000000E-01      3.0000000000E-02      3.0000000000E+00       npf_k33_0             1.0000000000E+00      0.0000000000E+00      1          
 npf_k33_0_005_010      log                    factor                3.0000000000E-01      3.0000000000E-02      3.0000000000E+00       npf_k33_0             1.0000000000E+00      0.0000000000E+00      1          
 npf_k33_0_005_011      log                    factor                3.0000000000E-01      3.0000000000E-02      3.0000000000E+00       npf_k33_0             1.0000000000E+00      0.0000000000E+00      1          
 npf_k33_0_005_012      log                    factor                3.0000000000E-01      3.0000000000E-02      3.0000000000E+00       npf_k33_0             1.0000000000E+00      0.0000000000E+00      1          
 npf_k33_0_005_013      log                    factor                3.0000000000E-01      3.0000000000E-02      3.0000000000E+00       npf_k33_0             1.0000000000E+00      0.0000000000E+00      1          
 npf_k33_0_005_014      log                    factor                3.0000000000E-01      3.0000000000E-02      3.0000000000E+00       npf_k33_0             1.0000000000E+00      0.0000000000E+00      1          
 npf_k33_0_005_015      log                    factor                3.0000000000E-01      3.0000000000E-02      3.0000000000E+00       npf_k33_0             1.0000000000E+00      0.0000000000E+00      1          
 npf_k33_0_005_016      log                    factor                3.0000000000E-01      3.0000000000E-02      3.0000000000E+00       npf_k33_0             1.0000000000E+00      0.0000000000E+00      1          
 npf_k33_0_005_017      log                    factor                3.0000000000E-01      3.0000000000E-02      3.0000000000E+00       npf_k33_0             1.0000000000E+00      0.0000000000E+00      1          
 npf_k33_0_005_018      log                    factor                3.0000000000E-01      3.0000000000E-02      3.0000000000E+00       npf_k33_0             1.0000000000E+00      0.0000000000E+00      1          
 npf_k33_0_005_019      log                    factor                3.0000000000E-01      3.0000000000E-02      3.0000000000E+00       npf_k33_0             1.0000000000E+00      0.0000000000E+00      1          
 npf_k33_0_006_000      log                    factor                3.0000000000E-01      3.0000000000E-02      3.0000000000E+00       npf_k33_0             1.0000000000E+00      0.0000000000E+00      1          
 npf_k33_0_006_001      log                    factor                3.0000000000E-01      3.0000000000E-02      3.0000000000E+00       npf_k33_0             1.0000000000E+00      0.0000000000E+00      1          
 npf_k33_0_006_002      log                    factor                3.0000000000E-01      3.0000000000E-02      3.0000000000E+00       npf_k33_0             1.0000000000E+00      0.0000000000E+00      1          
 npf_k33_0_006_003      log                    factor                3.0000000000E-01      3.0000000000E-02      3.0000000000E+00       npf_k33_0             1.0000000000E+00      0.0000000000E+00      1          