ptf ~
BEGIN Options
  READASARRAYS
END Options

BEGIN PERIOD  1
  recharge
   constant ~     rch_0     ~
END PERIOD  1

BEGIN PERIOD  2
  recharge
   constant ~     rch_1     ~
END PERIOD  2

BEGIN PERIOD  3
  recharge
   constant ~     rch_2     ~
END PERIOD  3

BEGIN PERIOD  4
  recharge
   constant ~     rch_3     ~
END PERIOD  4

BEGIN PERIOD  5
  recharge
   constant ~     rch_4     ~
END PERIOD  5

BEGIN PERIOD  6
  recharge
   constant ~     rch_5     ~
END PERIOD  6

BEGIN PERIOD  7
  recharge
   constant ~     rch_6     ~
END PERIOD  7

BEGIN PERIOD  8
  recharge
   constant ~     rch_7     ~
END PERIOD  8

BEGIN PERIOD  9
  recharge
   constant ~     rch_8     ~
END PERIOD  9

BEGIN PERIOD  10
  recharge
   constant ~     rch_9     ~
END PERIOD  10

BEGIN PERIOD  11
  recharge
   constant ~     rch_10     ~
END PERIOD  11

BEGIN PERIOD  12
  recharge
   constant ~     rch_11     ~
END PERIOD  12

BEGIN PERIOD  13
  recharge
   constant ~     rch_12     ~
END PERIOD  13

BEGIN PERIOD  14
  recharge
   constant ~     rch_13     ~
END PERIOD  14

BEGIN PERIOD  15
  recharge
   constant ~     rch_14     ~
END PERIOD  15

BEGIN PERIOD  16
  recharge
   constant ~     rch_15     ~
END PERIOD  16

BEGIN PERIOD  17
  recharge
   constant ~     rch_16     ~
END PERIOD  17

BEGIN PERIOD  18
  recharge
   constant ~     rch_17     ~
END PERIOD  18

BEGIN PERIOD  19
  recharge
   constant ~     rch_18     ~
END PERIOD  19

BEGIN PERIOD  20
  recharge
   constant ~     rch_19     ~
END PERIOD  20

BEGIN PERIOD  21
  recharge
   constant ~     rch_20     ~
END PERIOD  21

BEGIN PERIOD  22
  recharge
   constant ~     rch_21     ~
END PERIOD  22

BEGIN PERIOD  23
  recharge
   constant ~     rch_22     ~
END PERIOD  23

BEGIN PERIOD  24
  recharge
   constant ~     rch_23     ~
END PERIOD  24

BEGIN PERIOD  25
  recharge
   constant ~     rch_24     ~
END PERIOD  25

BEGIN PERIOD  26
  recharge
   constant ~     rch_25     ~
END PERIOD  26

BEGIN PERIOD  27
  recharge
   constant ~     rch_26     ~
END PERIOD  27

BEGIN PERIOD  28
  recharge
   constant ~     rch_27     ~
END PERIOD  28

BEGIN PERIOD  29
  recharge
   constant ~     rch_28     ~
END PERIOD  29

BEGIN PERIOD  30
  recharge
   constant ~     rch_29     ~
END PERIOD  30

BEGIN PERIOD  31
  recharge
   constant ~     rch_30     ~
END PERIOD  31

BEGIN PERIOD  32
  recharge
   constant ~     rch_31     ~
END PERIOD  32

BEGIN PERIOD  33
  recharge
   constant ~     rch_32     ~
END PERIOD  33

BEGIN PERIOD  34
  recharge
   constant ~     rch_33     ~
END PERIOD  34

BEGIN PERIOD  35
  recharge
   constant ~     rch_34     ~
END PERIOD  35

BEGIN PERIOD  36
  recharge
   constant ~     rch_35     ~
END PERIOD  36

BEGIN PERIOD  37
  recharge
   constant ~     rch_36     ~
END PERIOD  37

BEGIN PERIOD  38
  recharge
   constant ~     rch_37     ~
END PERIOD  38

BEGIN PERIOD  39
  recharge
   constant ~     rch_38     ~
END PERIOD  39

BEGIN PERIOD  40
  recharge
   constant ~     rch_39     ~
END PERIOD  40

BEGIN PERIOD  41
  recharge
   constant ~     rch_40     ~
END PERIOD  41

BEGIN PERIOD  42
  recharge
   constant ~     rch_41     ~
END PERIOD  42

BEGIN PERIOD  43
  recharge
   constant ~     rch_42     ~
END PERIOD  43

BEGIN PERIOD  44
  recharge
   constant ~     rch_43     ~
END PERIOD  44

BEGIN PERIOD  45
  recharge
   constant ~     rch_44     ~
END PERIOD  45

BEGIN PERIOD  46
  recharge
   constant ~     rch_45     ~
END PERIOD  46

BEGIN PERIOD  47
  recharge
   constant ~     rch_46     ~
END PERIOD  47

BEGIN PERIOD  48
  recharge
   constant ~     rch_47     ~
END PERIOD  48

BEGIN PERIOD  49
  recharge
   constant ~     rch_48     ~
END PERIOD  49

BEGIN PERIOD  50
  recharge
   constant ~     rch_49     ~
END PERIOD  50

BEGIN PERIOD  51
  recharge
   constant ~     rch_50     ~
END PERIOD  51

BEGIN PERIOD  52
  recharge
   constant ~     rch_51     ~
END PERIOD  52

BEGIN PERIOD  53
  recharge
   constant ~     rch_52     ~
END PERIOD  53

BEGIN PERIOD  54
  recharge
   constant ~     rch_53     ~
END PERIOD  54

BEGIN PERIOD  55
  recharge
   constant ~     rch_54     ~
END PERIOD  55

BEGIN PERIOD  56
  recharge
   constant ~     rch_55     ~
END PERIOD  56

BEGIN PERIOD  57
  recharge
   constant ~     rch_56     ~
END PERIOD  57

BEGIN PERIOD  58
  recharge
   constant ~     rch_57     ~
END PERIOD  58

BEGIN PERIOD  59
  recharge
   constant ~     rch_58     ~
END PERIOD  59

BEGIN PERIOD  60
  recharge
   constant ~     rch_59     ~
END PERIOD  60

BEGIN PERIOD  61
  recharge
   constant ~     rch_60     ~
END PERIOD  61

BEGIN PERIOD  62
  recharge
   constant ~     rch_61     ~
END PERIOD  62

BEGIN PERIOD  63
  recharge
   constant ~     rch_62     ~
END PERIOD  63

BEGIN PERIOD  64
  recharge
   constant ~     rch_63     ~
END PERIOD  64

BEGIN PERIOD  65
  recharge
   constant ~     rch_64     ~
END PERIOD  65

BEGIN PERIOD  66
  recharge
   constant ~     rch_65     ~
END PERIOD  66

BEGIN PERIOD  67
  recharge
   constant ~     rch_66     ~
END PERIOD  67

BEGIN PERIOD  68
  recharge
   constant ~     rch_67     ~
END PERIOD  68

BEGIN PERIOD  69
  recharge
   constant ~     rch_68     ~
END PERIOD  69

BEGIN PERIOD  70
  recharge
   constant ~     rch_69     ~
END PERIOD  70

BEGIN PERIOD  71
  recharge
   constant ~     rch_70     ~
END PERIOD  71

BEGIN PERIOD  72
  recharge
   constant ~     rch_71     ~
END PERIOD  72

BEGIN PERIOD  73
  recharge
   constant ~     rch_72     ~
END PERIOD  73

BEGIN PERIOD  74
  recharge
   constant ~     rch_73     ~
END PERIOD  74

BEGIN PERIOD  75
  recharge
   constant ~     rch_74     ~
END PERIOD  75

BEGIN PERIOD  76
  recharge
   constant ~     rch_75     ~
END PERIOD  76

BEGIN PERIOD  77
  recharge
   constant ~     rch_76     ~
END PERIOD  77

BEGIN PERIOD  78
  recharge
   constant ~     rch_77     ~
END PERIOD  78

BEGIN PERIOD  79
  recharge
   constant ~     rch_78     ~
END PERIOD  79

BEGIN PERIOD  80
  recharge
   constant ~     rch_79     ~
END PERIOD  80

BEGIN PERIOD  81
  recharge
   constant ~     rch_80     ~
END PERIOD  81

BEGIN PERIOD  82
  recharge
   constant ~     rch_81     ~
END PERIOD  82

BEGIN PERIOD  83
  recharge
   constant ~     rch_82     ~
END PERIOD  83

BEGIN PERIOD  84
  recharge
   constant ~     rch_83     ~
END PERIOD  84

BEGIN PERIOD  85
  recharge
   constant ~     rch_84     ~
END PERIOD  85

BEGIN PERIOD  86
  recharge
   constant ~     rch_85     ~
END PERIOD  86

BEGIN PERIOD  87
  recharge
   constant ~     rch_86     ~
END PERIOD  87

BEGIN PERIOD  88
  recharge
   constant ~     rch_87     ~
END PERIOD  88

BEGIN PERIOD  89
  recharge
   constant ~     rch_88     ~
END PERIOD  89

BEGIN PERIOD  90
  recharge
   constant ~     rch_89     ~
END PERIOD  90

BEGIN PERIOD  91
  recharge
   constant ~     rch_90     ~
END PERIOD  91

BEGIN PERIOD  92
  recharge
   constant ~     rch_91     ~
END PERIOD  92

BEGIN PERIOD  94
  recharge
   constant ~     rch_93     ~
END PERIOD  94

BEGIN PERIOD  95
  recharge
   constant ~     rch_94     ~
END PERIOD  95

BEGIN PERIOD  96
  recharge
   constant ~     rch_95     ~
END PERIOD  96

BEGIN PERIOD  97
  recharge
   constant ~     rch_96     ~
END PERIOD  97

BEGIN PERIOD  98
  recharge
   constant ~     rch_97     ~
END PERIOD  98

BEGIN PERIOD  99
  recharge
   constant ~     rch_98     ~
END PERIOD  99

BEGIN PERIOD  100
  recharge
   constant ~     rch_99     ~
END PERIOD  100

BEGIN PERIOD  101
  recharge
   constant ~     rch_100     ~
END PERIOD  101

BEGIN PERIOD  102
  recharge
   constant ~     rch_101     ~
END PERIOD  102

BEGIN PERIOD  103
  recharge
   constant ~     rch_102     ~
END PERIOD  103

BEGIN PERIOD  104
  recharge
   constant ~     rch_103     ~
END PERIOD  104

BEGIN PERIOD  105
  recharge
   constant ~     rch_104     ~
END PERIOD  105

BEGIN PERIOD  106
  recharge
   constant ~     rch_105     ~
END PERIOD  106

BEGIN PERIOD  107
  recharge
   constant ~     rch_106     ~
END PERIOD  107

BEGIN PERIOD  108
  recharge
   constant ~     rch_107     ~
END PERIOD  108

BEGIN PERIOD  109
  recharge
   constant ~     rch_108     ~
END PERIOD  109

BEGIN PERIOD  110
  recharge
   constant ~     rch_109     ~
END PERIOD  110

BEGIN PERIOD  111
  recharge
   constant ~     rch_110     ~
END PERIOD  111

BEGIN PERIOD  112
  recharge
   constant ~     rch_111     ~
END PERIOD  112

BEGIN PERIOD  113
  recharge
   constant ~     rch_112     ~
END PERIOD  113

BEGIN PERIOD  114
  recharge
   constant ~     rch_113     ~
END PERIOD  114

BEGIN PERIOD  115
  recharge
   constant ~     rch_114     ~
END PERIOD  115

BEGIN PERIOD  116
  recharge
   constant ~     rch_115     ~
END PERIOD  116

BEGIN PERIOD  117
  recharge
   constant ~     rch_116     ~
END PERIOD  117

BEGIN PERIOD  118
  recharge
   constant ~     rch_117     ~
END PERIOD  118

BEGIN PERIOD  119
  recharge
   constant ~     rch_118     ~
END PERIOD  119

BEGIN PERIOD  120
  recharge
   constant ~     rch_119     ~
END PERIOD  120

BEGIN PERIOD  121
  recharge
   constant ~     rch_120     ~
END PERIOD  121

BEGIN PERIOD  122
  recharge
   constant ~     rch_121     ~
END PERIOD  122

BEGIN PERIOD  123
  recharge
   constant ~     rch_122     ~
END PERIOD  123

BEGIN PERIOD  124
  recharge
   constant ~     rch_123     ~
END PERIOD  124

BEGIN PERIOD  125
  recharge
   constant ~     rch_124     ~
END PERIOD  125

BEGIN PERIOD  126
  recharge
   constant ~     rch_125     ~
END PERIOD  126

BEGIN PERIOD  127
  recharge
   constant ~     rch_126     ~
END PERIOD  127

BEGIN PERIOD  128
  recharge
   constant ~     rch_127     ~
END PERIOD  128

BEGIN PERIOD  129
  recharge
   constant ~     rch_128     ~
END PERIOD  129

BEGIN PERIOD  130
  recharge
   constant ~     rch_129     ~
END PERIOD  130

BEGIN PERIOD  131
  recharge
   constant ~     rch_130     ~
END PERIOD  131

BEGIN PERIOD  132
  recharge
   constant ~     rch_131     ~
END PERIOD  132

BEGIN PERIOD  133
  recharge
   constant ~     rch_132     ~
END PERIOD  133

BEGIN PERIOD  134
  recharge
   constant ~     rch_133     ~
END PERIOD  134

BEGIN PERIOD  135
  recharge
   constant ~     rch_134     ~
END PERIOD  135

BEGIN PERIOD  136
  recharge
   constant ~     rch_135     ~
END PERIOD  136

BEGIN PERIOD  137
  recharge
   constant ~     rch_136     ~
END PERIOD  137

BEGIN PERIOD  138
  recharge
   constant ~     rch_137     ~
END PERIOD  138

BEGIN PERIOD  139
  recharge
   constant ~     rch_138     ~
END PERIOD  139

BEGIN PERIOD  140
  recharge
   constant ~     rch_139     ~
END PERIOD  140

BEGIN PERIOD  141
  recharge
   constant ~     rch_140     ~
END PERIOD  141

BEGIN PERIOD  142
  recharge
   constant ~     rch_141     ~
END PERIOD  142

BEGIN PERIOD  143
  recharge
   constant ~     rch_142     ~
END PERIOD  143

BEGIN PERIOD  144
  recharge
   constant ~     rch_143     ~
END PERIOD  144

BEGIN PERIOD  145
  recharge
   constant ~     rch_144     ~
END PERIOD  145

BEGIN PERIOD  146
  recharge
   constant ~     rch_145     ~
END PERIOD  146

BEGIN PERIOD  147
  recharge
   constant ~     rch_146     ~
END PERIOD  147

BEGIN PERIOD  148
  recharge
   constant ~     rch_147     ~
END PERIOD  148

BEGIN PERIOD  149
  recharge
   constant ~     rch_148     ~
END PERIOD  149

BEGIN PERIOD  150
  recharge
   constant ~     rch_149     ~
END PERIOD  150

BEGIN PERIOD  151
  recharge
   constant ~     rch_150     ~
END PERIOD  151

BEGIN PERIOD  152
  recharge
   constant ~     rch_151     ~
END PERIOD  152

BEGIN PERIOD  153
  recharge
   constant ~     rch_152     ~
END PERIOD  153

BEGIN PERIOD  154
  recharge
   constant ~     rch_153     ~
END PERIOD  154

BEGIN PERIOD  155
  recharge
   constant ~     rch_154     ~
END PERIOD  155

BEGIN PERIOD  156
  recharge
   constant ~     rch_155     ~
END PERIOD  156

BEGIN PERIOD  157
  recharge
   constant ~     rch_156     ~
END PERIOD  157

BEGIN PERIOD  158
  recharge
   constant ~     rch_157     ~
END PERIOD  158

BEGIN PERIOD  159
  recharge
   constant ~     rch_158     ~
END PERIOD  159

BEGIN PERIOD  160
  recharge
   constant ~     rch_159     ~
END PERIOD  160

BEGIN PERIOD  161
  recharge
   constant ~     rch_160     ~
END PERIOD  161

BEGIN PERIOD  162
  recharge
   constant ~     rch_161     ~
END PERIOD  162

BEGIN PERIOD  163
  recharge
   constant ~     rch_162     ~
END PERIOD  163

BEGIN PERIOD  164
  recharge
   constant ~     rch_163     ~
END PERIOD  164

BEGIN PERIOD  165
  recharge
   constant ~     rch_164     ~
END PERIOD  165

BEGIN PERIOD  166
  recharge
   constant ~     rch_165     ~
END PERIOD  166

BEGIN PERIOD  167
  recharge
   constant ~     rch_166     ~
END PERIOD  167

BEGIN PERIOD  168
  recharge
   constant ~     rch_167     ~
END PERIOD  168

BEGIN PERIOD  169
  recharge
   constant ~     rch_168     ~
END PERIOD  169

BEGIN PERIOD  170
  recharge
   constant ~     rch_169     ~
END PERIOD  170

BEGIN PERIOD  171
  recharge
   constant ~     rch_170     ~
END PERIOD  171

BEGIN PERIOD  172
  recharge
   constant ~     rch_171     ~
END PERIOD  172

BEGIN PERIOD  173
  recharge
   constant ~     rch_172     ~
END PERIOD  173

BEGIN PERIOD  174
  recharge
   constant ~     rch_173     ~
END PERIOD  174

BEGIN PERIOD  175
  recharge
   constant ~     rch_174     ~
END PERIOD  175

BEGIN PERIOD  176
  recharge
   constant ~     rch_175     ~
END PERIOD  176

BEGIN PERIOD  177
  recharge
   constant ~     rch_176     ~
END PERIOD  177

BEGIN PERIOD  178
  recharge
   constant ~     rch_177     ~
END PERIOD  178

BEGIN PERIOD  179
  recharge
   constant ~     rch_178     ~
END PERIOD  179

BEGIN PERIOD  180
  recharge
   constant ~     rch_179     ~
END PERIOD  180

BEGIN PERIOD  181
  recharge
   constant ~     rch_180     ~
END PERIOD  181

BEGIN PERIOD  182
  recharge
   constant ~     rch_181     ~
END PERIOD  182

BEGIN PERIOD  183
  recharge
   constant ~     rch_182     ~
END PERIOD  183

BEGIN PERIOD  184
  recharge
   constant ~     rch_183     ~
END PERIOD  184

BEGIN PERIOD  185
  recharge
   constant ~     rch_184     ~
END PERIOD  185

BEGIN PERIOD  186
  recharge
   constant ~     rch_185     ~
END PERIOD  186

BEGIN PERIOD  187
  recharge
   constant ~     rch_186     ~
END PERIOD  187

BEGIN PERIOD  188
  recharge
   constant ~     rch_187     ~
END PERIOD  188

BEGIN PERIOD  189
  recharge
   constant ~     rch_188     ~
END PERIOD  189

BEGIN PERIOD  190
  recharge
   constant ~     rch_189     ~
END PERIOD  190

BEGIN PERIOD  191
  recharge
   constant ~     rch_190     ~
END PERIOD  191

BEGIN PERIOD  192
  recharge
   constant ~     rch_191     ~
END PERIOD  192

BEGIN PERIOD  193
  recharge
   constant ~     rch_192     ~
END PERIOD  193

BEGIN PERIOD  194
  recharge
   constant ~     rch_193     ~
END PERIOD  194

BEGIN PERIOD  195
  recharge
   constant ~     rch_194     ~
END PERIOD  195

BEGIN PERIOD  196
  recharge
   constant ~     rch_195     ~
END PERIOD  196

BEGIN PERIOD  197
  recharge
   constant ~     rch_196     ~
END PERIOD  197

BEGIN PERIOD  198
  recharge
   constant ~     rch_197     ~
END PERIOD  198

BEGIN PERIOD  199
  recharge
   constant ~     rch_198     ~
END PERIOD  199

BEGIN PERIOD  200
  recharge
   constant ~     rch_199     ~
END PERIOD  200

BEGIN PERIOD  201
  recharge
   constant ~     rch_200     ~
END PERIOD  201

BEGIN PERIOD  202
  recharge
   constant ~     rch_201     ~
END PERIOD  202

BEGIN PERIOD  203
  recharge
   constant ~     rch_202     ~
END PERIOD  203

BEGIN PERIOD  204
  recharge
   constant ~     rch_203     ~
END PERIOD  204

BEGIN PERIOD  205
  recharge
   constant ~     rch_204     ~
END PERIOD  205

BEGIN PERIOD  206
  recharge
   constant ~     rch_205     ~
END PERIOD  206

BEGIN PERIOD  207
  recharge
   constant ~     rch_206     ~
END PERIOD  207

BEGIN PERIOD  208
  recharge
   constant ~     rch_207     ~
END PERIOD  208

BEGIN PERIOD  209
  recharge
   constant ~     rch_208     ~
END PERIOD  209

BEGIN PERIOD  210
  recharge
   constant ~     rch_209     ~
END PERIOD  210

BEGIN PERIOD  211
  recharge
   constant ~     rch_210     ~
END PERIOD  211

BEGIN PERIOD  212
  recharge
   constant ~     rch_211     ~
END PERIOD  212

BEGIN PERIOD  213
  recharge
   constant ~     rch_212     ~
END PERIOD  213

BEGIN PERIOD  214
  recharge
   constant ~     rch_213     ~
END PERIOD  214

BEGIN PERIOD  215
  recharge
   constant ~     rch_214     ~
END PERIOD  215

BEGIN PERIOD  216
  recharge
   constant ~     rch_215     ~
END PERIOD  216

BEGIN PERIOD  217
  recharge
   constant ~     rch_216     ~
END PERIOD  217

BEGIN PERIOD  218
  recharge
   constant ~     rch_217     ~
END PERIOD  218

BEGIN PERIOD  219
  recharge
   constant ~     rch_218     ~
END PERIOD  219

BEGIN PERIOD  220
  recharge
   constant ~     rch_219     ~
END PERIOD  220

BEGIN PERIOD  221
  recharge
   constant ~     rch_220     ~
END PERIOD  221

BEGIN PERIOD  222
  recharge
   constant ~     rch_221     ~
END PERIOD  222

BEGIN PERIOD  223
  recharge
   constant ~     rch_222     ~
END PERIOD  223

BEGIN PERIOD  224
  recharge
   constant ~     rch_223     ~
END PERIOD  224

BEGIN PERIOD  225
  recharge
   constant ~     rch_224     ~
END PERIOD  225

BEGIN PERIOD  226
  recharge
   constant ~     rch_225     ~
END PERIOD  226

BEGIN PERIOD  227
  recharge
   constant ~     rch_226     ~
END PERIOD  227

BEGIN PERIOD  228
  recharge
   constant ~     rch_227     ~
END PERIOD  228

BEGIN PERIOD  229
  recharge
   constant ~     rch_228     ~
END PERIOD  229

BEGIN PERIOD  230
  recharge
   constant ~     rch_229     ~
END PERIOD  230

BEGIN PERIOD  231
  recharge
   constant ~     rch_230     ~
END PERIOD  231

BEGIN PERIOD  232
  recharge
   constant ~     rch_231     ~
END PERIOD  232

BEGIN PERIOD  233
  recharge
   constant ~     rch_232     ~
END PERIOD  233

BEGIN PERIOD  234
  recharge
   constant ~     rch_233     ~
END PERIOD  234

BEGIN PERIOD  235
  recharge
   constant ~     rch_234     ~
END PERIOD  235

BEGIN PERIOD  236
  recharge
   constant ~     rch_235     ~
END PERIOD  236

BEGIN PERIOD  237
  recharge
   constant ~     rch_236     ~
END PERIOD  237

BEGIN PERIOD  238
  recharge
   constant ~     rch_237     ~
END PERIOD  238

BEGIN PERIOD  239
  recharge
   constant ~     rch_238     ~
END PERIOD  239

BEGIN PERIOD  240
  recharge
   constant ~     rch_239     ~
END PERIOD  240

BEGIN PERIOD  241
  recharge
   constant ~     rch_240     ~
END PERIOD  241

BEGIN PERIOD  242
  recharge
   constant ~     rch_241     ~
END PERIOD  242

BEGIN PERIOD  243
  recharge
   constant ~     rch_242     ~
END PERIOD  243

BEGIN PERIOD  244
  recharge
   constant ~     rch_243     ~
END PERIOD  244

BEGIN PERIOD  245
  recharge
   constant ~     rch_244     ~
END PERIOD  245

BEGIN PERIOD  246
  recharge
   constant ~     rch_245     ~
END PERIOD  246

BEGIN PERIOD  247
  recharge
   constant ~     rch_246     ~
END PERIOD  247

BEGIN PERIOD  248
  recharge
   constant ~     rch_247     ~
END PERIOD  248

BEGIN PERIOD  249
  recharge
   constant ~     rch_248     ~
END PERIOD  249

BEGIN PERIOD  250
  recharge
   constant ~     rch_249     ~
END PERIOD  250

BEGIN PERIOD  251
  recharge
   constant ~     rch_250     ~
END PERIOD  251

BEGIN PERIOD  252
  recharge
   constant ~     rch_251     ~
END PERIOD  252

BEGIN PERIOD  253
  recharge
   constant ~     rch_252     ~
END PERIOD  253

BEGIN PERIOD  254
  recharge
   constant ~     rch_253     ~
END PERIOD  254

BEGIN PERIOD  255
  recharge
   constant ~     rch_254     ~
END PERIOD  255

BEGIN PERIOD  256
  recharge
   constant ~     rch_255     ~
END PERIOD  256

BEGIN PERIOD  257
  recharge
   constant ~     rch_256     ~
END PERIOD  257

BEGIN PERIOD  258
  recharge
   constant ~     rch_257     ~
END PERIOD  258

BEGIN PERIOD  259
  recharge
   constant ~     rch_258     ~
END PERIOD  259

BEGIN PERIOD  260
  recharge
   constant ~     rch_259     ~
END PERIOD  260

BEGIN PERIOD  261
  recharge
   constant ~     rch_260     ~
END PERIOD  261

BEGIN PERIOD  262
  recharge
   constant ~     rch_261     ~
END PERIOD  262

BEGIN PERIOD  263
  recharge
   constant ~     rch_262     ~
END PERIOD  263

BEGIN PERIOD  264
  recharge
   constant ~     rch_263     ~
END PERIOD  264

BEGIN PERIOD  265
  recharge
   constant ~     rch_264     ~
END PERIOD  265

BEGIN PERIOD  266
  recharge
   constant ~     rch_265     ~
END PERIOD  266

BEGIN PERIOD  267
  recharge
   constant ~     rch_266     ~
END PERIOD  267

BEGIN PERIOD  268
  recharge
   constant ~     rch_267     ~
END PERIOD  268

BEGIN PERIOD  269
  recharge
   constant ~     rch_268     ~
END PERIOD  269

BEGIN PERIOD  270
  recharge
   constant ~     rch_269     ~
END PERIOD  270

BEGIN PERIOD  271
  recharge
   constant ~     rch_270     ~
END PERIOD  271

BEGIN PERIOD  272
  recharge
   constant ~     rch_271     ~
END PERIOD  272

BEGIN PERIOD  273
  recharge
   constant ~     rch_272     ~
END PERIOD  273

BEGIN PERIOD  274
  recharge
   constant ~     rch_273     ~
END PERIOD  274

BEGIN PERIOD  275
  recharge
   constant ~     rch_274     ~
END PERIOD  275

BEGIN PERIOD  276
  recharge
   constant ~     rch_275     ~
END PERIOD  276

BEGIN PERIOD  277
  recharge
   constant ~     rch_276     ~
END PERIOD  277

BEGIN PERIOD  278
  recharge
   constant ~     rch_277     ~
END PERIOD  278

BEGIN PERIOD  279
  recharge
   constant ~     rch_278     ~
END PERIOD  279

BEGIN PERIOD  280
  recharge
   constant ~     rch_279     ~
END PERIOD  280

BEGIN PERIOD  281
  recharge
   constant ~     rch_280     ~
END PERIOD  281

BEGIN PERIOD  282
  recharge
   constant ~     rch_281     ~
END PERIOD  282

BEGIN PERIOD  283
  recharge
   constant ~     rch_282     ~
END PERIOD  283

BEGIN PERIOD  284
  recharge
   constant ~     rch_283     ~
END PERIOD  284

BEGIN PERIOD  285
  recharge
   constant ~     rch_284     ~
END PERIOD  285

BEGIN PERIOD  286
  recharge
   constant ~     rch_285     ~
END PERIOD  286

BEGIN PERIOD  287
  recharge
   constant ~     rch_286     ~
END PERIOD  287

BEGIN PERIOD  288
  recharge
   constant ~     rch_287     ~
END PERIOD  288

BEGIN PERIOD  289
  recharge
   constant ~     rch_288     ~
END PERIOD  289

BEGIN PERIOD  290
  recharge
   constant ~     rch_289     ~
END PERIOD  290

BEGIN PERIOD  291
  recharge
   constant ~     rch_290     ~
END PERIOD  291

BEGIN PERIOD  292
  recharge
   constant ~     rch_291     ~
END PERIOD  292

BEGIN PERIOD  293
  recharge
   constant ~     rch_292     ~
END PERIOD  293

BEGIN PERIOD  294
  recharge
   constant ~     rch_293     ~
END PERIOD  294

BEGIN PERIOD  295
  recharge
   constant ~     rch_294     ~
END PERIOD  295

BEGIN PERIOD  296
  recharge
   constant ~     rch_295     ~
END PERIOD  296

BEGIN PERIOD  297
  recharge
   constant ~     rch_296     ~
END PERIOD  297

BEGIN PERIOD  298
  recharge
   constant ~     rch_297     ~
END PERIOD  298

BEGIN PERIOD  299
  recharge
   constant ~     rch_298     ~
END PERIOD  299

BEGIN PERIOD  300
  recharge
   constant ~     rch_299     ~
END PERIOD  300

BEGIN PERIOD  301
  recharge
   constant ~     rch_300     ~
END PERIOD  301

BEGIN PERIOD  302
  recharge
   constant ~     rch_301     ~
END PERIOD  302

BEGIN PERIOD  303
  recharge
   constant ~     rch_302     ~
END PERIOD  303

BEGIN PERIOD  304
  recharge
   constant ~     rch_303     ~
END PERIOD  304

BEGIN PERIOD  305
  recharge
   constant ~     rch_304     ~
END PERIOD  305

BEGIN PERIOD  306
  recharge
   constant ~     rch_305     ~
END PERIOD  306

BEGIN PERIOD  307
  recharge
   constant ~     rch_306     ~
END PERIOD  307

BEGIN PERIOD  308
  recharge
   constant ~     rch_307     ~
END PERIOD  308

BEGIN PERIOD  309
  recharge
   constant ~     rch_308     ~
END PERIOD  309

BEGIN PERIOD  310
  recharge
   constant ~     rch_309     ~
END PERIOD  310

BEGIN PERIOD  311
  recharge
   constant ~     rch_310     ~
END PERIOD  311

BEGIN PERIOD  312
  recharge
   constant ~     rch_311     ~
END PERIOD  312

BEGIN PERIOD  313
  recharge
   constant ~     rch_312     ~
END PERIOD  313

BEGIN PERIOD  314
  recharge
   constant ~     rch_313     ~
END PERIOD  314

BEGIN PERIOD  315
  recharge
   constant ~     rch_314     ~
END PERIOD  315

BEGIN PERIOD  316
  recharge
   constant ~     rch_315     ~
END PERIOD  316

BEGIN PERIOD  317
  recharge
   constant ~     rch_316     ~
END PERIOD  317

BEGIN PERIOD  318
  recharge
   constant ~     rch_317     ~
END PERIOD  318

BEGIN PERIOD  319
  recharge
   constant ~     rch_318     ~
END PERIOD  319

BEGIN PERIOD  320
  recharge
   constant ~     rch_319     ~
END PERIOD  320

BEGIN PERIOD  321
  recharge
   constant ~     rch_320     ~
END PERIOD  321

BEGIN PERIOD  322
  recharge
   constant ~     rch_321     ~
END PERIOD  322

BEGIN PERIOD  323
  recharge
   constant ~     rch_322     ~
END PERIOD  323

BEGIN PERIOD  324
  recharge
   constant ~     rch_323     ~
END PERIOD  324

BEGIN PERIOD  325
  recharge
   constant ~     rch_324     ~
END PERIOD  325

BEGIN PERIOD  326
  recharge
   constant ~     rch_325     ~
END PERIOD  326

BEGIN PERIOD  327
  recharge
   constant ~     rch_326     ~
END PERIOD  327

BEGIN PERIOD  328
  recharge
   constant ~     rch_327     ~
END PERIOD  328

BEGIN PERIOD  329
  recharge
   constant ~     rch_328     ~
END PERIOD  329

BEGIN PERIOD  330
  recharge
   constant ~     rch_329     ~
END PERIOD  330

BEGIN PERIOD  331
  recharge
   constant ~     rch_330     ~
END PERIOD  331

BEGIN PERIOD  332
  recharge
   constant ~     rch_331     ~
END PERIOD  332

BEGIN PERIOD  333
  recharge
   constant ~     rch_332     ~
END PERIOD  333

BEGIN PERIOD  334
  recharge
   constant ~     rch_333     ~
END PERIOD  334

BEGIN PERIOD  335
  recharge
   constant ~     rch_334     ~
END PERIOD  335

BEGIN PERIOD  336
  recharge
   constant ~     rch_335     ~
END PERIOD  336

BEGIN PERIOD  337
  recharge
   constant ~     rch_336     ~
END PERIOD  337

BEGIN PERIOD  338
  recharge
   constant ~     rch_337     ~
END PERIOD  338

BEGIN PERIOD  339
  recharge
   constant ~     rch_338     ~
END PERIOD  339

BEGIN PERIOD  340
  recharge
   constant ~     rch_339     ~
END PERIOD  340

BEGIN PERIOD  341
  recharge
   constant ~     rch_340     ~
END PERIOD  341

BEGIN PERIOD  342
  recharge
   constant ~     rch_341     ~
END PERIOD  342

BEGIN PERIOD  343
  recharge
   constant ~     rch_342     ~
END PERIOD  343

BEGIN PERIOD  344
  recharge
   constant ~     rch_343     ~
END PERIOD  344

BEGIN PERIOD  345
  recharge
   constant ~     rch_344     ~
END PERIOD  345

BEGIN PERIOD  346
  recharge
   constant ~     rch_345     ~
END PERIOD  346

BEGIN PERIOD  347
  recharge
   constant ~     rch_346     ~
END PERIOD  347

BEGIN PERIOD  348
  recharge
   constant ~     rch_347     ~
END PERIOD  348

BEGIN PERIOD  349
  recharge
   constant ~     rch_348     ~
END PERIOD  349

BEGIN PERIOD  350
  recharge
   constant ~     rch_349     ~
END PERIOD  350

BEGIN PERIOD  351
  recharge
   constant ~     rch_350     ~
END PERIOD  351

BEGIN PERIOD  352
  recharge
   constant ~     rch_351     ~
END PERIOD  352

BEGIN PERIOD  353
  recharge
   constant ~     rch_352     ~
END PERIOD  353

BEGIN PERIOD  354
  recharge
   constant ~     rch_353     ~
END PERIOD  354

BEGIN PERIOD  355
  recharge
   constant ~     rch_354     ~
END PERIOD  355

BEGIN PERIOD  356
  recharge
   constant ~     rch_355     ~
END PERIOD  356

BEGIN PERIOD  357
  recharge
   constant ~     rch_356     ~
END PERIOD  357

BEGIN PERIOD  358
  recharge
   constant ~     rch_357     ~
END PERIOD  358

BEGIN PERIOD  359
  recharge
   constant ~     rch_358     ~
END PERIOD  359

BEGIN PERIOD  360
  recharge
   constant ~     rch_359     ~
END PERIOD  360

BEGIN PERIOD  361
  recharge
   constant ~     rch_360     ~
END PERIOD  361

BEGIN PERIOD  362
  recharge
   constant ~     rch_361     ~
END PERIOD  362

BEGIN PERIOD  363
  recharge
   constant ~     rch_362     ~
END PERIOD  363

BEGIN PERIOD  364
  recharge
   constant ~     rch_363     ~
END PERIOD  364

BEGIN PERIOD  365
  recharge
   constant ~     rch_364     ~
END PERIOD  365

BEGIN PERIOD  366
  recharge
   constant ~     rch_365     ~
END PERIOD  366

BEGIN PERIOD  367
  recharge
   constant ~     rch_366     ~
END PERIOD  367

BEGIN PERIOD  368
  recharge
   constant ~     rch_367     ~
END PERIOD  368

BEGIN PERIOD  369
  recharge
   constant ~     rch_368     ~
END PERIOD  369

BEGIN PERIOD  370
  recharge
   constant ~     rch_369     ~
END PERIOD  370

BEGIN PERIOD  371
  recharge
   constant ~     rch_370     ~
END PERIOD  371

BEGIN PERIOD  372
  recharge
   constant ~     rch_371     ~
END PERIOD  372

BEGIN PERIOD  373
  recharge
   constant ~     rch_372     ~
END PERIOD  373

BEGIN PERIOD  374
  recharge
   constant ~     rch_373     ~
END PERIOD  374

BEGIN PERIOD  375
  recharge
   constant ~     rch_374     ~
END PERIOD  375

BEGIN PERIOD  376
  recharge
   constant ~     rch_375     ~
END PERIOD  376

BEGIN PERIOD  377
  recharge
   constant ~     rch_376     ~
END PERIOD  377

BEGIN PERIOD  378
  recharge
   constant ~     rch_377     ~
END PERIOD  378

BEGIN PERIOD  379
  recharge
   constant ~     rch_378     ~
END PERIOD  379

BEGIN PERIOD  380
  recharge
   constant ~     rch_379     ~
END PERIOD  380

BEGIN PERIOD  381
  recharge
   constant ~     rch_380     ~
END PERIOD  381

BEGIN PERIOD  382
  recharge
   constant ~     rch_381     ~
END PERIOD  382

BEGIN PERIOD  383
  recharge
   constant ~     rch_382     ~
END PERIOD  383

BEGIN PERIOD  384
  recharge
   constant ~     rch_383     ~
END PERIOD  384

BEGIN PERIOD  385
  recharge
   constant ~     rch_384     ~
END PERIOD  385

BEGIN PERIOD  386
  recharge
   constant ~     rch_385     ~
END PERIOD  386

BEGIN PERIOD  387
  recharge
   constant ~     rch_386     ~
END PERIOD  387

BEGIN PERIOD  388
  recharge
   constant ~     rch_387     ~
END PERIOD  388

BEGIN PERIOD  389
  recharge
   constant ~     rch_388     ~
END PERIOD  389
