BEGIN Options
  PRINT_INPUT
  SAVE_FLOWS
  MAXIMUM_DEPTH_CHANGE  1.00000000E-04
  UNIT_CONVERSION   86400.00000000
END Options

BEGIN Dimensions
  NREACHES  120
END Dimensions

BEGIN PACKAGEDATA
  1  1 1 47      83.33334000       5.00000000  5.00000000E-05      34.00000000       1.00000000       0.10000000  0.3000000e-01  1       1.00000000  0
  2  1 2 47      83.33334000       5.00000000  5.00000000E-05      33.99580000       1.00000000       0.10000000  0.3000000e-01  2       1.00000000  0
  3  1 3 47      83.33334000       5.00000000  5.00000000E-05      33.99160000       1.00000000       0.10000000  0.3000000e-01  2       1.00000000  0
  4  1 4 47      83.33334000       5.00000000  5.00000000E-05      33.98740000       1.00000000       0.10000000  0.3000000e-01  2       1.00000000  0
  5  1 5 47      83.33334000       5.00000000  5.00000000E-05      33.98319000       1.00000000       0.10000000  0.3000000e-01  2       1.00000000  0
  6  1 6 47      83.33334000       5.00000000  5.00000000E-05      33.97899000       1.00000000       0.10000000  0.3000000e-01  2       1.00000000  0
  7  1 7 47      83.33334000       5.00000000  5.00000000E-05      33.97479000       1.00000000       0.10000000  0.3000000e-01  2       1.00000000  0
  8  1 8 47      83.33334000       5.00000000  5.00000000E-05      33.97059000       1.00000000       0.10000000  0.3000000e-01  2       1.00000000  0
  9  1 9 47      83.33334000       5.00000000  5.00000000E-05      33.96638000       1.00000000       0.10000000  0.3000000e-01  2       1.00000000  0
  10  1 10 47      83.33334000       5.00000000  5.00000000E-05      33.96218000       1.00000000       0.10000000  0.3000000e-01  2       1.00000000  0
  11  1 11 47      83.33334000       5.00000000  5.00000000E-05      33.95798000       1.00000000       0.10000000  0.3000000e-01  2       1.00000000  0
  12  1 12 47      83.33334000       5.00000000  5.00000000E-05      33.95378000       1.00000000       0.10000000  0.3000000e-01  2       1.00000000  0
  13  1 13 47      83.33334000       5.00000000  5.00000000E-05      33.94958000       1.00000000       0.10000000  0.3000000e-01  2       1.00000000  0
  14  1 14 47      83.33334000       5.00000000  5.00000000E-05      33.94538000       1.00000000       0.10000000  0.3000000e-01  2       1.00000000  0
  15  1 15 47      83.33334000       5.00000000  5.00000000E-05      33.94118000       1.00000000       0.10000000  0.3000000e-01  2       1.00000000  0
  16  1 16 47      83.33334000       5.00000000  5.00000000E-05      33.93697000       1.00000000       0.10000000  0.3000000e-01  2       1.00000000  0
  17  1 17 47      83.33334000       5.00000000  5.00000000E-05      33.93277000       1.00000000       0.10000000  0.3000000e-01  2       1.00000000  0
  18  1 18 47      83.33334000       5.00000000  5.00000000E-05      33.92857000       1.00000000       0.10000000  0.3000000e-01  2       1.00000000  0
  19  1 19 47      83.33334000       5.00000000  5.00000000E-05      33.92437000       1.00000000       0.10000000  0.3000000e-01  2       1.00000000  0
  20  1 20 47      83.33334000       5.00000000  5.00000000E-05      33.92017000       1.00000000       0.10000000  0.3000000e-01  2       1.00000000  0
  21  1 21 47      83.33334000       5.00000000  5.00000000E-05      33.91597000       1.00000000       0.10000000  0.3000000e-01  2       1.00000000  0
  22  1 22 47      83.33334000       5.00000000  5.00000000E-05      33.91177000       1.00000000       0.10000000  0.3000000e-01  2       1.00000000  0
  23  1 23 47      83.33334000       5.00000000  5.00000000E-05      33.90756000       1.00000000       0.10000000  0.3000000e-01  2       1.00000000  0
  24  1 24 47      83.33334000       5.00000000  5.00000000E-05      33.90336000       1.00000000       0.10000000  0.3000000e-01  2       1.00000000  0
  25  1 25 47      83.33334000       5.00000000  5.00000000E-05      33.89916000       1.00000000       0.10000000  0.3000000e-01  2       1.00000000  0
  26  1 26 47      83.33334000       5.00000000  5.00000000E-05      33.89496000       1.00000000       0.10000000  0.3000000e-01  2       1.00000000  0
  27  1 27 47      83.33334000       5.00000000  5.00000000E-05      33.89075000       1.00000000       0.10000000  0.3000000e-01  2       1.00000000  0
  28  1 28 47      83.33334000       5.00000000  5.00000000E-05      33.88655000       1.00000000       0.10000000  0.3000000e-01  2       1.00000000  0
  29  1 29 47      83.33334000       5.00000000  5.00000000E-05      33.88235000       1.00000000       0.10000000  0.3000000e-01  2       1.00000000  0
  30  1 30 47      83.33334000       5.00000000  5.00000000E-05      33.87815000       1.00000000       0.10000000  0.3000000e-01  2       1.00000000  0
  31  1 31 47      83.33334000       5.00000000  5.00000000E-05      33.87395000       1.00000000       0.10000000  0.3000000e-01  2       1.00000000  0
  32  1 32 47      83.33334000       5.00000000  5.00000000E-05      33.86975000       1.00000000       0.10000000  0.3000000e-01  2       1.00000000  0
  33  1 33 47      83.33334000       5.00000000  5.00000000E-05      33.86555000       1.00000000       0.10000000  0.3000000e-01  2       1.00000000  0
  34  1 34 47      83.33334000       5.00000000  5.00000000E-05      33.86134000       1.00000000       0.10000000  0.3000000e-01  2       1.00000000  0
  35  1 35 47      83.33334000       5.00000000  5.00000000E-05      33.85714000       1.00000000       0.10000000  0.3000000e-01  2       1.00000000  0
  36  1 36 47      83.33334000       5.00000000  5.00000000E-05      33.85294000       1.00000000       0.10000000  0.3000000e-01  2       1.00000000  0
  37  1 37 47      83.33334000       5.00000000  5.00000000E-05      33.84874000       1.00000000       0.10000000  0.3000000e-01  2       1.00000000  0
  38  1 38 47      83.33334000       5.00000000  5.00000000E-05      33.84454000       1.00000000       0.10000000  0.3000000e-01  2       1.00000000  0
  39  1 39 47      83.33334000       5.00000000  5.00000000E-05      33.84034000       1.00000000       0.10000000  0.3000000e-01  2       1.00000000  0
  40  1 40 47      83.33334000       5.00000000  5.00000000E-05      33.83614000       1.00000000       0.10000000  0.3000000e-01  2       1.00000000  0
  41  1 41 47      83.33334000       5.00000000  5.00000000E-05      33.83193000       1.00000000       0.10000000  0.3000000e-01  2       1.00000000  0
  42  1 42 47      83.33334000       5.00000000  5.00000000E-05      33.82773000       1.00000000       0.10000000  0.3000000e-01  2       1.00000000  0
  43  1 43 47      83.33334000       5.00000000  5.00000000E-05      33.82353000       1.00000000       0.10000000  0.3000000e-01  2       1.00000000  0
  44  1 44 47      83.33334000       5.00000000  5.00000000E-05      33.81933000       1.00000000       0.10000000  0.3000000e-01  2       1.00000000  0
  45  1 45 47      83.33334000       5.00000000  5.00000000E-05      33.81512000       1.00000000       0.10000000  0.3000000e-01  2       1.00000000  0
  46  1 46 47      83.33334000       5.00000000  5.00000000E-05      33.81092000       1.00000000       0.10000000  0.3000000e-01  2       1.00000000  0
  47  1 47 47      83.33334000       5.00000000  5.00000000E-05      33.80672000       1.00000000       0.10000000  0.3000000e-01  2       1.00000000  0
  48  1 48 47      83.33334000       5.00000000  5.00000000E-05      33.80252000       1.00000000       0.10000000  0.3000000e-01  2       1.00000000  0
  49  1 49 47      83.33334000       5.00000000  5.00000000E-05      33.79832000       1.00000000       0.10000000  0.3000000e-01  2       1.00000000  0
  50  1 50 47      83.33334000       5.00000000  5.00000000E-05      33.79412000       1.00000000       0.10000000  0.3000000e-01  2       1.00000000  0
  51  1 51 47      83.33334000       5.00000000  5.00000000E-05      33.78992000       1.00000000       0.10000000  0.3000000e-01  2       1.00000000  0
  52  1 52 47      83.33334000       5.00000000  5.00000000E-05      33.78571000       1.00000000       0.10000000  0.3000000e-01  2       1.00000000  0
  53  1 53 47      83.33334000       5.00000000  5.00000000E-05      33.78151000       1.00000000       0.10000000  0.3000000e-01  2       1.00000000  0
  54  1 54 47      83.33334000       5.00000000  5.00000000E-05      33.77731000       1.00000000       0.10000000  0.3000000e-01  2       1.00000000  0
  55  1 55 47      83.33334000       5.00000000  5.00000000E-05      33.77311000       1.00000000       0.10000000  0.3000000e-01  2       1.00000000  0
  56  1 56 47      83.33334000       5.00000000  5.00000000E-05      33.76891000       1.00000000       0.10000000  0.3000000e-01  2       1.00000000  0
  57  1 57 47      83.33334000       5.00000000  5.00000000E-05      33.76471000       1.00000000       0.10000000  0.3000000e-01  2       1.00000000  0
  58  1 58 47      83.33334000       5.00000000  5.00000000E-05      33.76051000       1.00000000       0.10000000  0.3000000e-01  2       1.00000000  0
  59  1 59 47      83.33334000       5.00000000  5.00000000E-05      33.75630000       1.00000000       0.10000000  0.3000000e-01  2       1.00000000  0
  60  1 60 47      83.33334000       5.00000000  5.00000000E-05      33.75210000       1.00000000       0.10000000  0.3000000e-01  2       1.00000000  0
  61  1 61 47      83.33334000       5.00000000  5.00000000E-05      33.74790000       1.00000000       0.10000000  0.3000000e-01  2       1.00000000  0
  62  1 62 47      83.33334000       5.00000000  5.00000000E-05      33.74370000       1.00000000       0.10000000  0.3000000e-01  2       1.00000000  0
  63  1 63 47      83.33334000       5.00000000  5.00000000E-05      33.73949000       1.00000000       0.10000000  0.3000000e-01  2       1.00000000  0
  64  1 64 47      83.33334000       5.00000000  5.00000000E-05      33.73529000       1.00000000       0.10000000  0.3000000e-01  2       1.00000000  0
  65  1 65 47      83.33334000       5.00000000  5.00000000E-05      33.73109000       1.00000000       0.10000000  0.3000000e-01  2       1.00000000  0
  66  1 66 47      83.33334000       5.00000000  5.00000000E-05      33.72689000       1.00000000       0.10000000  0.3000000e-01  2       1.00000000  0
  67  1 67 47      83.33334000       5.00000000  5.00000000E-05      33.72269000       1.00000000       0.10000000  0.3000000e-01  2       1.00000000  0
  68  1 68 47      83.33334000       5.00000000  5.00000000E-05      33.71849000       1.00000000       0.10000000  0.3000000e-01  2       1.00000000  0
  69  1 69 47      83.33334000       5.00000000  5.00000000E-05      33.71429000       1.00000000       0.10000000  0.3000000e-01  2       1.00000000  0
  70  1 70 47      83.33334000       5.00000000  5.00000000E-05      33.71008000       1.00000000       0.10000000  0.3000000e-01  2       1.00000000  0
  71  1 71 47      83.33334000       5.00000000  5.00000000E-05      33.70588000       1.00000000       0.10000000  0.3000000e-01  2       1.00000000  0
  72  1 72 47      83.33334000       5.00000000  5.00000000E-05      33.70168000       1.00000000       0.10000000  0.3000000e-01  2       1.00000000  0
  73  1 73 47      83.33334000       5.00000000  5.00000000E-05      33.69748000       1.00000000       0.10000000  0.3000000e-01  2       1.00000000  0
  74  1 74 47      83.33334000       5.00000000  5.00000000E-05      33.69328000       1.00000000       0.10000000  0.3000000e-01  2       1.00000000  0
  75  1 75 47      83.33334000       5.00000000  5.00000000E-05      33.68908000       1.00000000       0.10000000  0.3000000e-01  2       1.00000000  0
  76  1 76 47      83.33334000       5.00000000  5.00000000E-05      33.68488000       1.00000000       0.10000000  0.3000000e-01  2       1.00000000  0
  77  1 77 47      83.33334000       5.00000000  5.00000000E-05      33.68067000       1.00000000       0.10000000  0.3000000e-01  2       1.00000000  0
  78  1 78 47      83.33334000       5.00000000  5.00000000E-05      33.67647000       1.00000000       0.10000000  0.3000000e-01  2       1.00000000  0
  79  1 79 47      83.33334000       5.00000000  5.00000000E-05      33.67227000       1.00000000       0.10000000  0.3000000e-01  2       1.00000000  0
  80  1 80 47      83.33334000       5.00000000  5.00000000E-05      33.66807000       1.00000000       0.10000000  0.3000000e-01  2       1.00000000  0
  81  1 81 47      83.33334000       5.00000000  5.00000000E-05      33.66386000       1.00000000       0.10000000  0.3000000e-01  2       1.00000000  0
  82  1 82 47      83.33334000       5.00000000  5.00000000E-05      33.65966000       1.00000000       0.10000000  0.3000000e-01  2       1.00000000  0
  83  1 83 47      83.33334000       5.00000000  5.00000000E-05      33.65546000       1.00000000       0.10000000  0.3000000e-01  2       1.00000000  0
  84  1 84 47      83.33334000       5.00000000  5.00000000E-05      33.65126000       1.00000000       0.10000000  0.3000000e-01  2       1.00000000  0
  85  1 85 47      83.33334000       5.00000000  5.00000000E-05      33.64706000       1.00000000       0.10000000  0.3000000e-01  2       1.00000000  0
  86  1 86 47      83.33334000       5.00000000  5.00000000E-05      33.64286000       1.00000000       0.10000000  0.3000000e-01  2       1.00000000  0
  87  1 87 47      83.33334000       5.00000000  5.00000000E-05      33.63866000       1.00000000       0.10000000  0.3000000e-01  2       1.00000000  0
  88  1 88 47      83.33334000       5.00000000  5.00000000E-05      33.63445000       1.00000000       0.10000000  0.3000000e-01  2       1.00000000  0
  89  1 89 47      83.33334000       5.00000000  5.00000000E-05      33.63025000       1.00000000       0.10000000  0.3000000e-01  2       1.00000000  0
  90  1 90 47      83.33334000       5.00000000  5.00000000E-05      33.62605000       1.00000000       0.10000000  0.3000000e-01  2       1.00000000  0
  91  1 91 47      83.33334000       5.00000000  5.00000000E-05      33.62185000       1.00000000       0.10000000  0.3000000e-01  2       1.00000000  0
  92  1 92 47      83.33334000       5.00000000  5.00000000E-05      33.61765000       1.00000000       0.10000000  0.3000000e-01  2       1.00000000  0
  93  1 93 47      83.33334000       5.00000000  5.00000000E-05      33.61345000       1.00000000       0.10000000  0.3000000e-01  2       1.00000000  0
  94  1 94 47      83.33334000       5.00000000  5.00000000E-05      33.60925000       1.00000000       0.10000000  0.3000000e-01  2       1.00000000  0
  95  1 95 47      83.33334000       5.00000000  5.00000000E-05      33.60504000       1.00000000       0.10000000  0.3000000e-01  2       1.00000000  0
  96  1 96 47      83.33334000       5.00000000  5.00000000E-05      33.60084000       1.00000000       0.10000000  0.3000000e-01  2       1.00000000  0
  97  1 97 47      83.33334000       5.00000000  5.00000000E-05      33.59664000       1.00000000       0.10000000  0.3000000e-01  2       1.00000000  0
  98  1 98 47      83.33334000       5.00000000  5.00000000E-05      33.59244000       1.00000000       0.10000000  0.3000000e-01  2       1.00000000  0
  99  1 99 47      83.33334000       5.00000000  5.00000000E-05      33.58823000       1.00000000       0.10000000  0.3000000e-01  2       1.00000000  0
  100  1 100 47      83.33334000       5.00000000  5.00000000E-05      33.58403000       1.00000000       0.10000000  0.3000000e-01  2       1.00000000  0
  101  1 101 47      83.33334000       5.00000000  5.00000000E-05      33.57983000       1.00000000       0.10000000  0.3000000e-01  2       1.00000000  0
  102  1 102 47      83.33334000       5.00000000  5.00000000E-05      33.57563000       1.00000000       0.10000000  0.3000000e-01  2       1.00000000  0
  103  1 103 47      83.33334000       5.00000000  5.00000000E-05      33.57143000       1.00000000       0.10000000  0.3000000e-01  2       1.00000000  0
  104  1 104 47      83.33334000       5.00000000  5.00000000E-05      33.56723000       1.00000000       0.10000000  0.3000000e-01  2       1.00000000  0
  105  1 105 47      83.33334000       5.00000000  5.00000000E-05      33.56303000       1.00000000       0.10000000  0.3000000e-01  2       1.00000000  0
  106  1 106 47      83.33334000       5.00000000  5.00000000E-05      33.55882000       1.00000000       0.10000000  0.3000000e-01  2       1.00000000  0
  107  1 107 47      83.33334000       5.00000000  5.00000000E-05      33.55462000       1.00000000       0.10000000  0.3000000e-01  2       1.00000000  0
  108  1 108 47      83.33334000       5.00000000  5.00000000E-05      33.55042000       1.00000000       0.10000000  0.3000000e-01  2       1.00000000  0
  109  1 109 47      83.33334000       5.00000000  5.00000000E-05      33.54622000       1.00000000       0.10000000  0.3000000e-01  2       1.00000000  0
  110  1 110 47      83.33334000       5.00000000  5.00000000E-05      33.54202000       1.00000000       0.10000000  0.3000000e-01  2       1.00000000  0
  111  1 111 47      83.33334000       5.00000000  5.00000000E-05      33.53782000       1.00000000       0.10000000  0.3000000e-01  2       1.00000000  0
  112  1 112 47      83.33334000       5.00000000  5.00000000E-05      33.53362000       1.00000000       0.10000000  0.3000000e-01  2       1.00000000  0
  113  1 113 47      83.33334000       5.00000000  5.00000000E-05      33.52941000       1.00000000       0.10000000  0.3000000e-01  2       1.00000000  0
  114  1 114 47      83.33334000       5.00000000  5.00000000E-05      33.52521000       1.00000000       0.10000000  0.3000000e-01  2       1.00000000  0
  115  1 115 47      83.33334000       5.00000000  5.00000000E-05      33.52101000       1.00000000       0.10000000  0.3000000e-01  2       1.00000000  0
  116  1 116 47      83.33334000       5.00000000  5.00000000E-05      33.51681000       1.00000000       0.10000000  0.3000000e-01  2       1.00000000  0
  117  1 117 47      83.33334000       5.00000000  5.00000000E-05      33.51260000       1.00000000       0.10000000  0.3000000e-01  2       1.00000000  0
  118  1 118 47      83.33334000       5.00000000  5.00000000E-05      33.50840000       1.00000000       0.10000000  0.3000000e-01  2       1.00000000  0
  119  1 119 47      83.33334000       5.00000000  5.00000000E-05      33.50420000       1.00000000       0.10000000  0.3000000e-01  2       1.00000000  0
  120  1 120 47      83.33334000       5.00000000  5.00000000E-05      33.50100000       1.00000000       0.10000000  0.3000000e-01  1       1.00000000  0
END PACKAGEDATA

BEGIN CONNECTIONDATA
  1  -2
  2  1  -3
  3  2  -4
  4  3  -5
  5  4  -6
  6  5  -7
  7  6  -8
  8  7  -9
  9  8  -10
  10  9  -11
  11  10  -12
  12  11  -13
  13  12  -14
  14  13  -15
  15  14  -16
  16  15  -17
  17  16  -18
  18  17  -19
  19  18  -20
  20  19  -21
  21  20  -22
  22  21  -23
  23  22  -24
  24  23  -25
  25  24  -26
  26  25  -27
  27  26  -28
  28  27  -29
  29  28  -30
  30  29  -31
  31  30  -32
  32  31  -33
  33  32  -34
  34  33  -35
  35  34  -36
  36  35  -37
  37  36  -38
  38  37  -39
  39  38  -40
  40  39  -41
  41  40  -42
  42  41  -43
  43  42  -44
  44  43  -45
  45  44  -46
  46  45  -47
  47  46  -48
  48  47  -49
  49  48  -50
  50  49  -51
  51  50  -52
  52  51  -53
  53  52  -54
  54  53  -55
  55  54  -56
  56  55  -57
  57  56  -58
  58  57  -59
  59  58  -60
  60  59  -61
  61  60  -62
  62  61  -63
  63  62  -64
  64  63  -65
  65  64  -66
  66  65  -67
  67  66  -68
  68  67  -69
  69  68  -70
  70  69  -71
  71  70  -72
  72  71  -73
  73  72  -74
  74  73  -75
  75  74  -76
  76  75  -77
  77  76  -78
  78  77  -79
  79  78  -80
  80  79  -81
  81  80  -82
  82  81  -83
  83  82  -84
  84  83  -85
  85  84  -86
  86  85  -87
  87  86  -88
  88  87  -89
  89  88  -90
  90  89  -91
  91  90  -92
  92  91  -93
  93  92  -94
  94  93  -95
  95  94  -96
  96  95  -97
  97  96  -98
  98  97  -99
  99  98  -100
  100  99  -101
  101  100  -102
  102  101  -103
  103  102  -104
  104  103  -105
  105  104  -106
  106  105  -107
  107  106  -108
  108  107  -109
  109  108  -110
  110  109  -111
  111  110  -112
  112  111  -113
  113  112  -114
  114  113  -115
  115  114  -116
  116  115  -117
  117  116  -118
  118  117  -119
  119  118  -120
  120  119
END CONNECTIONDATA

BEGIN PERIOD  1
  1  inflow  500.000000000000
END PERIOD  1

BEGIN PERIOD  2
END PERIOD  2

