# WEL package for  MODFLOW-NWT, generated by Flopy.
         6        50 
         6         0 # stress period 1
         3        10        17          -175.0
         3        12        14          -175.0
         3        21        15          -175.0
         3        27        11          -175.0
         3        30         7          -175.0
         3        35        13          -175.0
         6         0 # stress period 2
         3        10        17        -62.7215
         3        12        14        -62.7215
         3        21        15        -62.7215
         3        27        11        -62.7215
         3        30         7        -62.7215
         3        35        13        -62.7215
         6         0 # stress period 3
         3        10        17       -69.59123
         3        12        14       -69.59123
         3        21        15       -69.59123
         3        27        11       -69.59123
         3        30         7       -69.59123
         3        35        13       -69.59123
         6         0 # stress period 4
         3        10        17      -107.15191
         3        12        14      -107.15191
         3        21        15      -107.15191
         3        27        11      -107.15191
         3        30         7      -107.15191
         3        35        13      -107.15191
         6         0 # stress period 5
         3        10        17      -164.46732
         3        12        14      -164.46732
         3        21        15      -164.46732
         3        27        11      -164.46732
         3        30         7      -164.46732
         3        35        13      -164.46732
         6         0 # stress period 6
         3        10        17      -224.84941
         3        12        14      -224.84941
         3        21        15      -224.84941
         3        27        11      -224.84941
         3        30         7      -224.84941
         3        35        13      -224.84941
         6         0 # stress period 7
         3        10        17      -270.71735
         3        12        14      -270.71735
         3        21        15      -270.71735
         3        27        11      -270.71735
         3        30         7      -270.71735
         3        35        13      -270.71735
         6         0 # stress period 8
         3        10        17      -270.71735
         3        12        14      -270.71735
         3        21        15      -270.71735
         3        27        11      -270.71735
         3        30         7      -270.71735
         3        35        13      -270.71735
         6         0 # stress period 9
         3        10        17      -288.71606
         3        12        14      -288.71606
         3        21        15      -288.71606
         3        27        11      -288.71606
         3        30         7      -288.71606
         3        35        13      -288.71606
         6         0 # stress period 10
         3        10        17      -273.60507
         3        12        14      -273.60507
         3        21        15      -273.60507
         3        27        11      -273.60507
         3        30         7      -273.60507
         3        35        13      -273.60507
         6         0 # stress period 11
         3        10        17      -229.78413
         3        12        14      -229.78413
         3        21        15      -229.78413
         3        27        11      -229.78413
         3        30         7      -229.78413
         3        35        13      -229.78413
         6         0 # stress period 12
         3        10        17      -170.01218
         3        12        14      -170.01218
         3        21        15      -170.01218
         3        27        11      -170.01218
         3        30         7      -170.01218
         3        35        13      -170.01218
         6         0 # stress period 13
         3        10        17     -111.692474
         3        12        14     -111.692474
         3        21        15     -111.692474
         3        27        11     -111.692474
         3        30         7     -111.692474
         3        35        13     -111.692474
         6         0 # stress period 14
         3        10        17       -71.80547
         3        12        14       -71.80547
         3        21        15       -71.80547
         3        27        11       -71.80547
         3        30         7       -71.80547
         3        35        13       -71.80547
         6         0 # stress period 15
         3        10        17      -61.964714
         3        12        14      -61.964714
         3        21        15      -61.964714
         3        27        11      -61.964714
         3        30         7      -61.964714
         3        35        13      -61.964714
         6         0 # stress period 16
         3        10        17       -85.03544
         3        12        14       -85.03544
         3        21        15       -85.03544
         3        27        11       -85.03544
         3        30         7       -85.03544
         3        35        13       -85.03544
         6         0 # stress period 17
         3        10        17      -134.30035
         3        12        14      -134.30035
         3        21        15      -134.30035
         3        27        11      -134.30035
         3        30         7      -134.30035
         3        35        13      -134.30035
         6         0 # stress period 18
         3        10        17      -195.41544
         3        12        14      -195.41544
         3        21        15      -195.41544
         3        27        11      -195.41544
         3        30         7      -195.41544
         3        35        13      -195.41544
         6         0 # stress period 19
         3        10        17      -250.58632
         3        12        14      -250.58632
         3        21        15      -250.58632
         3        27        11      -250.58632
         3        30         7      -250.58632
         3        35        13      -250.58632
         6         0 # stress period 20
         3        10        17       -283.7494
         3        12        14       -283.7494
         3        21        15       -283.7494
         3        27        11       -283.7494
         3        30         7       -283.7494
         3        35        13       -283.7494
         6         0 # stress period 21
         3        10        17       -285.2489
         3        12        14       -285.2489
         3        21        15       -285.2489
         3        27        11       -285.2489
         3        30         7       -285.2489
         3        35        13       -285.2489
         6         0 # stress period 22
         3        10        17      -254.64816
         3        12        14      -254.64816
         3        21        15      -254.64816
         3        27        11      -254.64816
         3        30         7      -254.64816
         3        35        13      -254.64816
         6         0 # stress period 23
         3        10        17      -200.85701
         3        12        14      -200.85701
         3        21        15      -200.85701
         3        27        11      -200.85701
         3        30         7      -200.85701
         3        35        13      -200.85701
         6         0 # stress period 24
         3        10        17      -139.53728
         3        12        14      -139.53728
         3        21        15      -139.53728
         3        27        11      -139.53728
         3        30         7      -139.53728
         3        35        13      -139.53728
         6         0 # stress period 25
         3        10        17      -88.542915
         3        12        14      -88.542915
         3        21        15      -88.542915
         3        27        11      -88.542915
         3        30         7      -88.542915
         3        35        13      -88.542915
