# TDIS6 input file, prepared by MF5to6 on 3/18/2020 at 15:39:37.

BEGIN Options
  TIME_UNITS DAYS
END Options

BEGIN Dimensions
  NPER 731
END Dimensions

BEGIN PERIODDATA
    1.0000000               1    1.0000000      Items: PERLEN NSTP TSMULT
    1.0000000               1    1.0000000      Items: PERLEN NSTP TSMULT
    1.0000000               1    1.0000000      Items: PERLEN NSTP TSMULT
    1.0000000               1    1.0000000      Items: PERLEN NSTP TSMULT
    1.0000000               1    1.0000000      Items: PERLEN NSTP TSMULT
    1.0000000               1    1.0000000      Items: PERLEN NSTP TSMULT
    1.0000000               1    1.0000000      Items: PERLEN NSTP TSMULT
    1.0000000               1    1.0000000      Items: PERLEN NSTP TSMULT
    1.0000000               1    1.0000000      Items: PERLEN NSTP TSMULT
    1.0000000               1    1.0000000      Items: PERLEN NSTP TSMULT
    1.0000000               1    1.0000000      Items: PERLEN NSTP TSMULT
    1.0000000               1    1.0000000      Items: PERLEN NSTP TSMULT
    1.0000000               1    1.0000000      Items: PERLEN NSTP TSMULT
    1.0000000               1    1.0000000      Items: PERLEN NSTP TSMULT
    1.0000000               1    1.0000000      Items: PERLEN NSTP TSMULT
    1.0000000               1    1.0000000      Items: PERLEN NSTP TSMULT
    1.0000000               1    1.0000000      Items: PERLEN NSTP TSMULT
    1.0000000               1    1.0000000      Items: PERLEN NSTP TSMULT
    1.0000000               1    1.0000000      Items: PERLEN NSTP TSMULT
    1.0000000               1    1.0000000      Items: PERLEN NSTP TSMULT
    1.0000000               1    1.0000000      Items: PERLEN NSTP TSMULT
    1.0000000               1    1.0000000      Items: PERLEN NSTP TSMULT
    1.0000000               1    1.0000000      Items: PERLEN NSTP TSMULT
    1.0000000               1    1.0000000      Items: PERLEN NSTP TSMULT
    1.0000000               1    1.0000000      Items: PERLEN NSTP TSMULT
    1.0000000               1    1.0000000      Items: PERLEN NSTP TSMULT
    1.0000000               1    1.0000000      Items: PERLEN NSTP TSMULT
    1.0000000               1    1.0000000      Items: PERLEN NSTP TSMULT
    1.0000000               1    1.0000000      Items: PERLEN NSTP TSMULT
    1.0000000               1    1.0000000      Items: PERLEN NSTP TSMULT
    1.0000000               1    1.0000000      Items: PERLEN NSTP TSMULT
    1.0000000               1    1.0000000      Items: PERLEN NSTP TSMULT
    1.0000000               1    1.0000000      Items: PERLEN NSTP TSMULT
    1.0000000               1    1.0000000      Items: PERLEN NSTP TSMULT
    1.0000000               1    1.0000000      Items: PERLEN NSTP TSMULT
    1.0000000               1    1.0000000      Items: PERLEN NSTP TSMULT
    1.0000000               1    1.0000000      Items: PERLEN NSTP TSMULT
    1.0000000               1    1.0000000      Items: PERLEN NSTP TSMULT
    1.0000000               1    1.0000000      Items: PERLEN NSTP TSMULT
    1.0000000               1    1.0000000      Items: PERLEN NSTP TSMULT
    1.0000000               1    1.0000000      Items: PERLEN NSTP TSMULT
    1.0000000               1    1.0000000      Items: PERLEN NSTP TSMULT
    1.0000000               1    1.0000000      Items: PERLEN NSTP TSMULT
    1.0000000               1    1.0000000      Items: PERLEN NSTP TSMULT
    1.0000000               1    1.0000000      Items: PERLEN NSTP TSMULT
    1.0000000               1    1.0000000      Items: PERLEN NSTP TSMULT
    1.0000000               1    1.0000000      Items: PERLEN NSTP TSMULT
    1.0000000               1    1.0000000      Items: PERLEN NSTP TSMULT
    1.0000000               1    1.0000000      Items: PERLEN NSTP TSMULT
    1.0000000               1    1.0000000      Items: PERLEN NSTP TSMULT
    1.0000000               1    1.0000000      Items: PERLEN NSTP TSMULT
    1.0000000               1    1.0000000      Items: PERLEN NSTP TSMULT
    1.0000000               1    1.0000000      Items: PERLEN NSTP TSMULT
    1.0000000               1    1.0000000      Items: PERLEN NSTP TSMULT
    1.0000000               1    1.0000000      Items: PERLEN NSTP TSMULT
    1.0000000               1    1.0000000      Items: PERLEN NSTP TSMULT
    1.0000000               1    1.0000000      Items: PERLEN NSTP TSMULT
    1.0000000               1    1.0000000      Items: PERLEN NSTP TSMULT
    1.0000000               1    1.0000000      Items: PERLEN NSTP TSMULT
    1.0000000               1    1.0000000      Items: PERLEN NSTP TSMULT
    1.0000000               1    1.0000000      Items: PERLEN NSTP TSMULT
    1.0000000               1    1.0000000      Items: PERLEN NSTP TSMULT
    1.0000000               1    1.0000000      Items: PERLEN NSTP TSMULT
    1.0000000               1    1.0000000      Items: PERLEN NSTP TSMULT
    1.0000000               1    1.0000000      Items: PERLEN NSTP TSMULT
    1.0000000               1    1.0000000      Items: PERLEN NSTP TSMULT
    1.0000000               1    1.0000000      Items: PERLEN NSTP TSMULT
    1.0000000               1    1.0000000      Items: PERLEN NSTP TSMULT
    1.0000000               1    1.0000000      Items: PERLEN NSTP TSMULT
    1.0000000               1    1.0000000      Items: PERLEN NSTP TSMULT
    1.0000000               1    1.0000000      Items: PERLEN NSTP TSMULT
    1.0000000               1    1.0000000      Items: PERLEN NSTP TSMULT
    1.0000000               1    1.0000000      Items: PERLEN NSTP TSMULT
    1.0000000               1    1.0000000      Items: PERLEN NSTP TSMULT
    1.0000000               1    1.0000000      Items: PERLEN NSTP TSMULT
    1.0000000               1    1.0000000      Items: PERLEN NSTP TSMULT
    1.0000000               1    1.0000000      Items: PERLEN NSTP TSMULT
    1.0000000               1    1.0000000      Items: PERLEN NSTP TSMULT
    1.0000000               1    1.0000000      Items: PERLEN NSTP TSMULT
    1.0000000               1    1.0000000      Items: PERLEN NSTP TSMULT
    1.0000000               1    1.0000000      Items: PERLEN NSTP TSMULT
    1.0000000               1    1.0000000      Items: PERLEN NSTP TSMULT
    1.0000000               1    1.0000000      Items: PERLEN NSTP TSMULT
    1.0000000               1    1.0000000      Items: PERLEN NSTP TSMULT
    1.0000000               1    1.0000000      Items: PERLEN NSTP TSMULT
    1.0000000               1    1.0000000      Items: PERLEN NSTP TSMULT
    1.0000000               1    1.0000000      Items: PERLEN NSTP TSMULT
    1.0000000               1    1.0000000      Items: PERLEN NSTP TSMULT
    1.0000000               1    1.0000000      Items: PERLEN NSTP TSMULT
    1.0000000               1    1.0000000      Items: PERLEN NSTP TSMULT
    1.0000000               1    1.0000000      Items: PERLEN NSTP TSMULT
    1.0000000               1    1.0000000      Items: PERLEN NSTP TSMULT
    1.0000000               1    1.0000000      Items: PERLEN NSTP TSMULT
    1.0000000               1    1.0000000      Items: PERLEN NSTP TSMULT
    1.0000000               1    1.0000000      Items: PERLEN NSTP TSMULT
    1.0000000               1    1.0000000      Items: PERLEN NSTP TSMULT
    1.0000000               1    1.0000000      Items: PERLEN NSTP TSMULT
    1.0000000               1    1.0000000      Items: PERLEN NSTP TSMULT
    1.0000000               1    1.0000000      Items: PERLEN NSTP TSMULT
    1.0000000               1    1.0000000      Items: PERLEN NSTP TSMULT
    1.0000000               1    1.0000000      Items: PERLEN NSTP TSMULT
    1.0000000               1    1.0000000      Items: PERLEN NSTP TSMULT
    1.0000000               1    1.0000000      Items: PERLEN NSTP TSMULT
    1.0000000               1    1.0000000      Items: PERLEN NSTP TSMULT
    1.0000000               1    1.0000000      Items: PERLEN NSTP TSMULT
    1.0000000               1    1.0000000      Items: PERLEN NSTP TSMULT
    1.0000000               1    1.0000000      Items: PERLEN NSTP TSMULT
    1.0000000               1    1.0000000      Items: PERLEN NSTP TSMULT
    1.0000000               1    1.0000000      Items: PERLEN NSTP TSMULT
    1.0000000               1    1.0000000      Items: PERLEN NSTP TSMULT
    1.0000000               1    1.0000000      Items: PERLEN NSTP TSMULT
    1.0000000               1    1.0000000      Items: PERLEN NSTP TSMULT
    1.0000000               1    1.0000000      Items: PERLEN NSTP TSMULT
    1.0000000               1    1.0000000      Items: PERLEN NSTP TSMULT
    1.0000000               1    1.0000000      Items: PERLEN NSTP TSMULT
    1.0000000               1    1.0000000      Items: PERLEN NSTP TSMULT
    1.0000000               1    1.0000000      Items: PERLEN NSTP TSMULT
    1.0000000               1    1.0000000      Items: PERLEN NSTP TSMULT
    1.0000000               1    1.0000000      Items: PERLEN NSTP TSMULT
    1.0000000               1    1.0000000      Items: PERLEN NSTP TSMULT
    1.0000000               1    1.0000000      Items: PERLEN NSTP TSMULT
    1.0000000               1    1.0000000      Items: PERLEN NSTP TSMULT
    1.0000000               1    1.0000000      Items: PERLEN NSTP TSMULT
    1.0000000               1    1.0000000      Items: PERLEN NSTP TSMULT
    1.0000000               1    1.0000000      Items: PERLEN NSTP TSMULT
    1.0000000               1    1.0000000      Items: PERLEN NSTP TSMULT
    1.0000000               1    1.0000000      Items: PERLEN NSTP TSMULT
    1.0000000               1    1.0000000      Items: PERLEN NSTP TSMULT
    1.0000000               1    1.0000000      Items: PERLEN NSTP TSMULT
    1.0000000               1    1.0000000      Items: PERLEN NSTP TSMULT
    1.0000000               1    1.0000000      Items: PERLEN NSTP TSMULT
    1.0000000               1    1.0000000      Items: PERLEN NSTP TSMULT
    1.0000000               1    1.0000000      Items: PERLEN NSTP TSMULT
    1.0000000               1    1.0000000      Items: PERLEN NSTP TSMULT
    1.0000000               1    1.0000000      Items: PERLEN NSTP TSMULT
    1.0000000               1    1.0000000      Items: PERLEN NSTP TSMULT
    1.0000000               1    1.0000000      Items: PERLEN NSTP TSMULT
    1.0000000               1    1.0000000      Items: PERLEN NSTP TSMULT
    1.0000000               1    1.0000000      Items: PERLEN NSTP TSMULT
    1.0000000               1    1.0000000      Items: PERLEN NSTP TSMULT
    1.0000000               1    1.0000000      Items: PERLEN NSTP TSMULT
    1.0000000               1    1.0000000      Items: PERLEN NSTP TSMULT
    1.0000000               1    1.0000000      Items: PERLEN NSTP TSMULT
    1.0000000               1    1.0000000      Items: PERLEN NSTP TSMULT
    1.0000000               1    1.0000000      Items: PERLEN NSTP TSMULT
    1.0000000               1    1.0000000      Items: PERLEN NSTP TSMULT
    1.0000000               1    1.0000000      Items: PERLEN NSTP TSMULT
    1.0000000               1    1.0000000      Items: PERLEN NSTP TSMULT
    1.0000000               1    1.0000000      Items: PERLEN NSTP TSMULT
    1.0000000               1    1.0000000      Items: PERLEN NSTP TSMULT
    1.0000000               1    1.0000000      Items: PERLEN NSTP TSMULT
    1.0000000               1    1.0000000      Items: PERLEN NSTP TSMULT
    1.0000000               1    1.0000000      Items: PERLEN NSTP TSMULT
    1.0000000               1    1.0000000      Items: PERLEN NSTP TSMULT
    1.0000000               1    1.0000000      Items: PERLEN NSTP TSMULT
    1.0000000               1    1.0000000      Items: PERLEN NSTP TSMULT
    1.0000000               1    1.0000000      Items: PERLEN NSTP TSMULT
    1.0000000               1    1.0000000      Items: PERLEN NSTP TSMULT
    1.0000000               1    1.0000000      Items: PERLEN NSTP TSMULT
    1.0000000               1    1.0000000      Items: PERLEN NSTP TSMULT
    1.0000000               1    1.0000000      Items: PERLEN NSTP TSMULT
    1.0000000               1    1.0000000      Items: PERLEN NSTP TSMULT
    1.0000000               1    1.0000000      Items: PERLEN NSTP TSMULT
    1.0000000               1    1.0000000      Items: PERLEN NSTP TSMULT
    1.0000000               1    1.0000000      Items: PERLEN NSTP TSMULT
    1.0000000               1    1.0000000      Items: PERLEN NSTP TSMULT
    1.0000000               1    1.0000000      Items: PERLEN NSTP TSMULT
    1.0000000               1    1.0000000      Items: PERLEN NSTP TSMULT
    1.0000000               1    1.0000000      Items: PERLEN NSTP TSMULT
    1.0000000               1    1.0000000      Items: PERLEN NSTP TSMULT
    1.0000000               1    1.0000000      Items: PERLEN NSTP TSMULT
    1.0000000               1    1.0000000      Items: PERLEN NSTP TSMULT
    1.0000000               1    1.0000000      Items: PERLEN NSTP TSMULT
    1.0000000               1    1.0000000      Items: PERLEN NSTP TSMULT
    1.0000000               1    1.0000000      Items: PERLEN NSTP TSMULT
    1.0000000               1    1.0000000      Items: PERLEN NSTP TSMULT
    1.0000000               1    1.0000000      Items: PERLEN NSTP TSMULT
    1.0000000               1    1.0000000      Items: PERLEN NSTP TSMULT
    1.0000000               1    1.0000000      Items: PERLEN NSTP TSMULT
    1.0000000               1    1.0000000      Items: PERLEN NSTP TSMULT
    1.0000000               1    1.0000000      Items: PERLEN NSTP TSMULT
    1.0000000               1    1.0000000      Items: PERLEN NSTP TSMULT
    1.0000000               1    1.0000000      Items: PERLEN NSTP TSMULT
    1.0000000               1    1.0000000      Items: PERLEN NSTP TSMULT
    1.0000000               1    1.0000000      Items: PERLEN NSTP TSMULT
    1.0000000               1    1.0000000      Items: PERLEN NSTP TSMULT
    1.0000000               1    1.0000000      Items: PERLEN NSTP TSMULT
    1.0000000               1    1.0000000      Items: PERLEN NSTP TSMULT
    1.0000000               1    1.0000000      Items: PERLEN NSTP TSMULT
    1.0000000               1    1.0000000      Items: PERLEN NSTP TSMULT
    1.0000000               1    1.0000000      Items: PERLEN NSTP TSMULT
    1.0000000               1    1.0000000      Items: PERLEN NSTP TSMULT
    1.0000000               1    1.0000000      Items: PERLEN NSTP TSMULT
    1.0000000               1    1.0000000      Items: PERLEN NSTP TSMULT
    1.0000000               1    1.0000000      Items: PERLEN NSTP TSMULT
    1.0000000               1    1.0000000      Items: PERLEN NSTP TSMULT
    1.0000000               1    1.0000000      Items: PERLEN NSTP TSMULT
    1.0000000               1    1.0000000      Items: PERLEN NSTP TSMULT
    1.0000000               1    1.0000000      Items: PERLEN NSTP TSMULT
    1.0000000               1    1.0000000      Items: PERLEN NSTP TSMULT
    1.0000000               1    1.0000000      Items: PERLEN NSTP TSMULT
    1.0000000               1    1.0000000      Items: PERLEN NSTP TSMULT
    1.0000000               1    1.0000000      Items: PERLEN NSTP TSMULT
    1.0000000               1    1.0000000      Items: PERLEN NSTP TSMULT
    1.0000000               1    1.0000000      Items: PERLEN NSTP TSMULT
    1.0000000               1    1.0000000      Items: PERLEN NSTP TSMULT
    1.0000000               1    1.0000000      Items: PERLEN NSTP TSMULT
    1.0000000               1    1.0000000      Items: PERLEN NSTP TSMULT
    1.0000000               1    1.0000000      Items: PERLEN NSTP TSMULT
    1.0000000               1    1.0000000      Items: PERLEN NSTP TSMULT
    1.0000000               1    1.0000000      Items: PERLEN NSTP TSMULT
    1.0000000               1    1.0000000      Items: PERLEN NSTP TSMULT
    1.0000000               1    1.0000000      Items: PERLEN NSTP TSMULT
    1.0000000               1    1.0000000      Items: PERLEN NSTP TSMULT
    1.0000000               1    1.0000000      Items: PERLEN NSTP TSMULT
    1.0000000               1    1.0000000      Items: PERLEN NSTP TSMULT
    1.0000000               1    1.0000000      Items: PERLEN NSTP TSMULT
    1.0000000               1    1.0000000      Items: PERLEN NSTP TSMULT
    1.0000000               1    1.0000000      Items: PERLEN NSTP TSMULT
    1.0000000               1    1.0000000      Items: PERLEN NSTP TSMULT
    1.0000000               1    1.0000000      Items: PERLEN NSTP TSMULT
    1.0000000               1    1.0000000      Items: PERLEN NSTP TSMULT
    1.0000000               1    1.0000000      Items: PERLEN NSTP TSMULT
    1.0000000               1    1.0000000      Items: PERLEN NSTP TSMULT
    1.0000000               1    1.0000000      Items: PERLEN NSTP TSMULT
    1.0000000               1    1.0000000      Items: PERLEN NSTP TSMULT
    1.0000000               1    1.0000000      Items: PERLEN NSTP TSMULT
    1.0000000               1    1.0000000      Items: PERLEN NSTP TSMULT
    1.0000000               1    1.0000000      Items: PERLEN NSTP TSMULT
    1.0000000               1    1.0000000      Items: PERLEN NSTP TSMULT
    1.0000000               1    1.0000000      Items: PERLEN NSTP TSMULT
    1.0000000               1    1.0000000      Items: PERLEN NSTP TSMULT
    1.0000000               1    1.0000000      Items: PERLEN NSTP TSMULT
    1.0000000               1    1.0000000      Items: PERLEN NSTP TSMULT
    1.0000000               1    1.0000000      Items: PERLEN NSTP TSMULT
    1.0000000               1    1.0000000      Items: PERLEN NSTP TSMULT
    1.0000000               1    1.0000000      Items: PERLEN NSTP TSMULT
    1.0000000               1    1.0000000      Items: PERLEN NSTP TSMULT
    1.0000000               1    1.0000000      Items: PERLEN NSTP TSMULT
    1.0000000               1    1.0000000      Items: PERLEN NSTP TSMULT
    1.0000000               1    1.0000000      Items: PERLEN NSTP TSMULT
    1.0000000               1    1.0000000      Items: PERLEN NSTP TSMULT
    1.0000000               1    1.0000000      Items: PERLEN NSTP TSMULT
    1.0000000               1    1.0000000      Items: PERLEN NSTP TSMULT
    1.0000000               1    1.0000000      Items: PERLEN NSTP TSMULT
    1.0000000               1    1.0000000      Items: PERLEN NSTP TSMULT
    1.0000000               1    1.0000000      Items: PERLEN NSTP TSMULT
    1.0000000               1    1.0000000      Items: PERLEN NSTP TSMULT
    1.0000000               1    1.0000000      Items: PERLEN NSTP TSMULT
    1.0000000               1    1.0000000      Items: PERLEN NSTP TSMULT
    1.0000000               1    1.0000000      Items: PERLEN NSTP TSMULT
    1.0000000               1    1.0000000      Items: PERLEN NSTP TSMULT
    1.0000000               1    1.0000000      Items: PERLEN NSTP TSMULT
    1.0000000               1    1.0000000      Items: PERLEN NSTP TSMULT
    1.0000000               1    1.0000000      Items: PERLEN NSTP TSMULT
    1.0000000               1    1.0000000      Items: PERLEN NSTP TSMULT
    1.0000000               1    1.0000000      Items: PERLEN NSTP TSMULT
    1.0000000               1    1.0000000      Items: PERLEN NSTP TSMULT
    1.0000000               1    1.0000000      Items: PERLEN NSTP TSMULT
    1.0000000               1    1.0000000      Items: PERLEN NSTP TSMULT
    1.0000000               1    1.0000000      Items: PERLEN NSTP TSMULT
    1.0000000               1    1.0000000      Items: PERLEN NSTP TSMULT
    1.0000000               1    1.0000000      Items: PERLEN NSTP TSMULT
    1.0000000               1    1.0000000      Items: PERLEN NSTP TSMULT
    1.0000000               1    1.0000000      Items: PERLEN NSTP TSMULT
    1.0000000               1    1.0000000      Items: PERLEN NSTP TSMULT
    1.0000000               1    1.0000000      Items: PERLEN NSTP TSMULT
    1.0000000               1    1.0000000      Items: PERLEN NSTP TSMULT
    1.0000000               1    1.0000000      Items: PERLEN NSTP TSMULT
    1.0000000               1    1.0000000      Items: PERLEN NSTP TSMULT
    1.0000000               1    1.0000000      Items: PERLEN NSTP TSMULT
    1.0000000               1    1.0000000      Items: PERLEN NSTP TSMULT
    1.0000000               1    1.0000000      Items: PERLEN NSTP TSMULT
    1.0000000               1    1.0000000      Items: PERLEN NSTP TSMULT
    1.0000000               1    1.0000000      Items: PERLEN NSTP TSMULT
    1.0000000               1    1.0000000      Items: PERLEN NSTP TSMULT
    1.0000000               1    1.0000000      Items: PERLEN NSTP TSMULT
    1.0000000               1    1.0000000      Items: PERLEN NSTP TSMULT
    1.0000000               1    1.0000000      Items: PERLEN NSTP TSMULT
    1.0000000               1    1.0000000      Items: PERLEN NSTP TSMULT
    1.0000000               1    1.0000000      Items: PERLEN NSTP TSMULT
    1.0000000               1    1.0000000      Items: PERLEN NSTP TSMULT
    1.0000000               1    1.0000000      Items: PERLEN NSTP TSMULT
    1.0000000               1    1.0000000      Items: PERLEN NSTP TSMULT
    1.0000000               1    1.0000000      Items: PERLEN NSTP TSMULT
    1.0000000               1    1.0000000      Items: PERLEN NSTP TSMULT
    1.0000000               1    1.0000000      Items: PERLEN NSTP TSMULT
    1.0000000               1    1.0000000      Items: PERLEN NSTP TSMULT
    1.0000000               1    1.0000000      Items: PERLEN NSTP TSMULT
    1.0000000               1    1.0000000      Items: PERLEN NSTP TSMULT
    1.0000000               1    1.0000000      Items: PERLEN NSTP TSMULT
    1.0000000               1    1.0000000      Items: PERLEN NSTP TSMULT
    1.0000000               1    1.0000000      Items: PERLEN NSTP TSMULT
    1.0000000               1    1.0000000      Items: PERLEN NSTP TSMULT
    1.0000000               1    1.0000000      Items: PERLEN NSTP TSMULT
    1.0000000               1    1.0000000      Items: PERLEN NSTP TSMULT
    1.0000000               1    1.0000000      Items: PERLEN NSTP TSMULT
    1.0000000               1    1.0000000      Items: PERLEN NSTP TSMULT
    1.0000000               1    1.0000000      Items: PERLEN NSTP TSMULT
    1.0000000               1    1.0000000      Items: PERLEN NSTP TSMULT
    1.0000000               1    1.0000000      Items: PERLEN NSTP TSMULT
    1.0000000               1    1.0000000      Items: PERLEN NSTP TSMULT
    1.0000000               1    1.0000000      Items: PERLEN NSTP TSMULT
    1.0000000               1    1.0000000      Items: PERLEN NSTP TSMULT
    1.0000000               1    1.0000000      Items: PERLEN NSTP TSMULT
    1.0000000               1    1.0000000      Items: PERLEN NSTP TSMULT
    1.0000000               1    1.0000000      Items: PERLEN NSTP TSMULT
    1.0000000               1    1.0000000      Items: PERLEN NSTP TSMULT
    1.0000000               1    1.0000000      Items: PERLEN NSTP TSMULT
    1.0000000               1    1.0000000      Items: PERLEN NSTP TSMULT
    1.0000000               1    1.0000000      Items: PERLEN NSTP TSMULT
    1.0000000               1    1.0000000      Items: PERLEN NSTP TSMULT
    1.0000000               1    1.0000000      Items: PERLEN NSTP TSMULT
    1.0000000               1    1.0000000      Items: PERLEN NSTP TSMULT
    1.0000000               1    1.0000000      Items: PERLEN NSTP TSMULT
    1.0000000               1    1.0000000      Items: PERLEN NSTP TSMULT
    1.0000000               1    1.0000000      Items: PERLEN NSTP TSMULT
    1.0000000               1    1.0000000      Items: PERLEN NSTP TSMULT
    1.0000000               1    1.0000000      Items: PERLEN NSTP TSMULT
    1.0000000               1    1.0000000      Items: PERLEN NSTP TSMULT
    1.0000000               1    1.0000000      Items: PERLEN NSTP TSMULT
    1.0000000               1    1.0000000      Items: PERLEN NSTP TSMULT
    1.0000000               1    1.0000000      Items: PERLEN NSTP TSMULT
    1.0000000               1    1.0000000      Items: PERLEN NSTP TSMULT
    1.0000000               1    1.0000000      Items: PERLEN NSTP TSMULT
    1.0000000               1    1.0000000      Items: PERLEN NSTP TSMULT
    1.0000000               1    1.0000000      Items: PERLEN NSTP TSMULT
    1.0000000               1    1.0000000      Items: PERLEN NSTP TSMULT
    1.0000000               1    1.0000000      Items: PERLEN NSTP TSMULT
    1.0000000               1    1.0000000      Items: PERLEN NSTP TSMULT
    1.0000000               1    1.0000000      Items: PERLEN NSTP TSMULT
    1.0000000               1    1.0000000      Items: PERLEN NSTP TSMULT
    1.0000000               1    1.0000000      Items: PERLEN NSTP TSMULT
    1.0000000               1    1.0000000      Items: PERLEN NSTP TSMULT
    1.0000000               1    1.0000000      Items: PERLEN NSTP TSMULT
    1.0000000               1    1.0000000      Items: PERLEN NSTP TSMULT
    1.0000000               1    1.0000000      Items: PERLEN NSTP TSMULT
    1.0000000               1    1.0000000      Items: PERLEN NSTP TSMULT
    1.0000000               1    1.0000000      Items: PERLEN NSTP TSMULT
    1.0000000               1    1.0000000      Items: PERLEN NSTP TSMULT
    1.0000000               1    1.0000000      Items: PERLEN NSTP TSMULT
    1.0000000               1    1.0000000      Items: PERLEN NSTP TSMULT
    1.0000000               1    1.0000000      Items: PERLEN NSTP TSMULT
    1.0000000               1    1.0000000      Items: PERLEN NSTP TSMULT
    1.0000000               1    1.0000000      Items: PERLEN NSTP TSMULT
    1.0000000               1    1.0000000      Items: PERLEN NSTP TSMULT
    1.0000000               1    1.0000000      Items: PERLEN NSTP TSMULT
    1.0000000               1    1.0000000      Items: PERLEN NSTP TSMULT
    1.0000000               1    1.0000000      Items: PERLEN NSTP TSMULT
    1.0000000               1    1.0000000      Items: PERLEN NSTP TSMULT
    1.0000000               1    1.0000000      Items: PERLEN NSTP TSMULT
    1.0000000               1    1.0000000      Items: PERLEN NSTP TSMULT
    1.0000000               1    1.0000000      Items: PERLEN NSTP TSMULT
    1.0000000               1    1.0000000      Items: PERLEN NSTP TSMULT
    1.0000000               1    1.0000000      Items: PERLEN NSTP TSMULT
    1.0000000               1    1.0000000      Items: PERLEN NSTP TSMULT
    1.0000000               1    1.0000000      Items: PERLEN NSTP TSMULT
    1.0000000               1    1.0000000      Items: PERLEN NSTP TSMULT
    1.0000000               1    1.0000000      Items: PERLEN NSTP TSMULT
    1.0000000               1    1.0000000      Items: PERLEN NSTP TSMULT
    1.0000000               1    1.0000000      Items: PERLEN NSTP TSMULT
    1.0000000               1    1.0000000      Items: PERLEN NSTP TSMULT
    1.0000000               1    1.0000000      Items: PERLEN NSTP TSMULT
    1.0000000               1    1.0000000      Items: PERLEN NSTP TSMULT
    1.0000000               1    1.0000000      Items: PERLEN NSTP TSMULT
    1.0000000               1    1.0000000      Items: PERLEN NSTP TSMULT
    1.0000000               1    1.0000000      Items: PERLEN NSTP TSMULT
    1.0000000               1    1.0000000      Items: PERLEN NSTP TSMULT
    1.0000000               1    1.0000000      Items: PERLEN NSTP TSMULT
    1.0000000               1    1.0000000      Items: PERLEN NSTP TSMULT
    1.0000000               1    1.0000000      Items: PERLEN NSTP TSMULT
    1.0000000               1    1.0000000      Items: PERLEN NSTP TSMULT
    1.0000000               1    1.0000000      Items: PERLEN NSTP TSMULT
    1.0000000               1    1.0000000      Items: PERLEN NSTP TSMULT
    1.0000000               1    1.0000000      Items: PERLEN NSTP TSMULT
    1.0000000               1    1.0000000      Items: PERLEN NSTP TSMULT
    1.0000000               1    1.0000000      Items: PERLEN NSTP TSMULT
    1.0000000               1    1.0000000      Items: PERLEN NSTP TSMULT
    1.0000000               1    1.0000000      Items: PERLEN NSTP TSMULT
    1.0000000               1    1.0000000      Items: PERLEN NSTP TSMULT
    1.0000000               1    1.0000000      Items: PERLEN NSTP TSMULT
    1.0000000               1    1.0000000      Items: PERLEN NSTP TSMULT
    1.0000000               1    1.0000000      Items: PERLEN NSTP TSMULT
    1.0000000               1    1.0000000      Items: PERLEN NSTP TSMULT
    1.0000000               1    1.0000000      Items: PERLEN NSTP TSMULT
    1.0000000               1    1.0000000      Items: PERLEN NSTP TSMULT
    1.0000000               1    1.0000000      Items: PERLEN NSTP TSMULT
    1.0000000               1    1.0000000      Items: PERLEN NSTP TSMULT
    1.0000000               1    1.0000000      Items: PERLEN NSTP TSMULT
    1.0000000               1    1.0000000      Items: PERLEN NSTP TSMULT
    1.0000000               1    1.0000000      Items: PERLEN NSTP TSMULT
    1.0000000               1    1.0000000      Items: PERLEN NSTP TSMULT
    1.0000000               1    1.0000000      Items: PERLEN NSTP TSMULT
    1.0000000               1    1.0000000      Items: PERLEN NSTP TSMULT
    1.0000000               1    1.0000000      Items: PERLEN NSTP TSMULT
    1.0000000               1    1.0000000      Items: PERLEN NSTP TSMULT
    1.0000000               1    1.0000000      Items: PERLEN NSTP TSMULT
    1.0000000               1    1.0000000      Items: PERLEN NSTP TSMULT
    1.0000000               1    1.0000000      Items: PERLEN NSTP TSMULT
    1.0000000               1    1.0000000      Items: PERLEN NSTP TSMULT
    1.0000000               1    1.0000000      Items: PERLEN NSTP TSMULT
    1.0000000               1    1.0000000      Items: PERLEN NSTP TSMULT
    1.0000000               1    1.0000000      Items: PERLEN NSTP TSMULT