# GHB package for  MODFLOW-NWT, generated by Flopy.
        30        50
        30         0 # stress period 1
         1        40         6            33.5            70.0
         1        40         7            33.5            70.0
         1        40         8            33.5            70.0
         1        40         9            33.5            70.0
         1        40        10            33.5            70.0
         1        40        11            33.5            70.0
         1        40        12            33.5            70.0
         1        40        13            33.5            70.0
         1        40        14            33.5            70.0
         1        40        15            33.5            70.0
         2        40         6            33.5            70.0
         2        40         7            33.5            70.0
         2        40         8            33.5            70.0
         2        40         9            33.5            70.0
         2        40        10            33.5            70.0
         2        40        11            33.5            70.0
         2        40        12            33.5            70.0
         2        40        13            33.5            70.0
         2        40        14            33.5            70.0
         2        40        15            33.5            70.0
         3        40         6            33.5            70.0
         3        40         7            33.5            70.0
         3        40         8            33.5            70.0
         3        40         9            33.5            70.0
         3        40        10            33.5            70.0
         3        40        11            33.5            70.0
         3        40        12            33.5            70.0
         3        40        13            33.5            70.0
         3        40        14            33.5            70.0
         3        40        15            33.5            70.0
        30         0 # stress period 2
         1        40         6            33.5            70.0
         1        40         7            33.5            70.0
         1        40         8            33.5            70.0
         1        40         9            33.5            70.0
         1        40        10            33.5            70.0
         1        40        11            33.5            70.0
         1        40        12            33.5            70.0
         1        40        13            33.5            70.0
         1        40        14            33.5            70.0
         1        40        15            33.5            70.0
         2        40         6            33.5            70.0
         2        40         7            33.5            70.0
         2        40         8            33.5            70.0
         2        40         9            33.5            70.0
         2        40        10            33.5            70.0
         2        40        11            33.5            70.0
         2        40        12            33.5            70.0
         2        40        13            33.5            70.0
         2        40        14            33.5            70.0
         2        40        15            33.5            70.0
         3        40         6            33.5            70.0
         3        40         7            33.5            70.0
         3        40         8            33.5            70.0
         3        40         9            33.5            70.0
         3        40        10            33.5            70.0
         3        40        11            33.5            70.0
         3        40        12            33.5            70.0
         3        40        13            33.5            70.0
         3        40        14            33.5            70.0
         3        40        15            33.5            70.0
        -1         0 # stress period 3
        -1         0 # stress period 4
        -1         0 # stress period 5
        -1         0 # stress period 6
        -1         0 # stress period 7
        -1         0 # stress period 8
        -1         0 # stress period 9
        -1         0 # stress period 10
        -1         0 # stress period 11
        -1         0 # stress period 12
        -1         0 # stress period 13
        -1         0 # stress period 14
        -1         0 # stress period 15
        -1         0 # stress period 16
        -1         0 # stress period 17
        -1         0 # stress period 18
        -1         0 # stress period 19
        -1         0 # stress period 20
        -1         0 # stress period 21
        -1         0 # stress period 22
        -1         0 # stress period 23
        -1         0 # stress period 24
        -1         0 # stress period 25
